*Heading
** Job name: Job-1 Model name: Model-1
** Generated by: Abaqus/CAE 2019
*Preprint, echo=NO, model=NO, history=NO, contact=NO
**
** PARTS
**
*Part, name=Battery
*Node
      1,   145.578842,   56.7034874,           0.
      2,   136.871719,   60.3100891,           0.
      3,   128.164612,   56.7034874,           0.
      4,   124.558006,   47.9963722,           0.
      5,   128.164612,   39.2892609,           0.
      6,   136.871719,   35.6826591,           0.
      7,   145.578842,   39.2892609,           0.
      8,    149.18544,   47.9963722,           0.
      9,         200.,           0.,           0.
     10,           0.,           0.,           0.
     11,           0.,          90.,           0.
     12,         200.,          90.,           0.
     13,         190.,           0.,           0.
     14,         180.,           0.,           0.
     15,         170.,           0.,           0.
     16,         160.,           0.,           0.
     17,         150.,           0.,           0.
     18,         140.,           0.,           0.
     19,         130.,           0.,           0.
     20,         120.,           0.,           0.
** ... 462 like lines cut
*Element, type=C3D8R
  1,  57, 130, 114,  58, 298, 371, 355, 299
  2, 111, 113,  55,  54, 352, 354, 296, 295
  3,  68, 110,  53,  52, 309, 351, 294, 293
  4,  79, 101,  46,  45, 320, 342, 287, 286
  5,  97, 131, 160,  96, 338, 372, 401, 337
  6,  38,  71, 227,  39, 279, 312, 468, 280
  7,  87,  73, 152, 153, 328, 314, 393, 394
  8,  72, 124,  74,   5, 313, 365, 315, 246
  9,  18,  84,  85,  19, 259, 325, 326, 260
 10, 117, 145, 133,  80, 358, 386, 374, 321
 11,  77, 177, 230, 127, 318, 418, 471, 368
 12, 132, 147, 112, 127, 373, 388, 353, 368
 13, 115,  61,  60,  78, 356, 302, 301, 319
 14, 168, 207, 146, 149, 409, 448, 387, 390
 15,  45,  44,  70,  79, 286, 285, 311, 320
 16,  15,  80,  81,  16, 256, 321, 322, 257
 17, 123, 228, 133, 188, 364, 469, 374, 429
 18,  16,  81,  82,  17, 257, 322, 323, 258
 19,  81,  80, 133, 231, 322, 321, 374, 472
 20,  17,  82,  84,  18, 258, 323, 325, 259
** ... 188 like lines cut
*Nset, nset=Batset, generate
   1,  482,    1
*Elset, elset=Batset, generate
   1,  208,    1
*Elset, elset=_BatTop_S2, internal, generate
   1,  208,    1
*Surface, type=ELEMENT, name=BatTop
_BatTop_S2, S2
*Elset, elset=_BatBot_S1, internal, generate
   1,  208,    1
*Surface, type=ELEMENT, name=BatBot
_BatBot_S1, S1
*Elset, elset=_Battery-rivet-0_S6, internal
 52, 64
*Elset, elset=_Battery-rivet-0_S5, internal
  67,  71, 101
*Elset, elset=_Battery-rivet-0_S4, internal
 69,
*Elset, elset=_Battery-rivet-0_S3, internal
 72, 79
*Surface, type=ELEMENT, name=Battery-rivet-0
_Battery-rivet-0_S6, S6
_Battery-rivet-0_S5, S5
_Battery-rivet-0_S4, S4
_Battery-rivet-0_S3, S3
*Orientation, name=Ori-1
1., 0., 0., 0., 1., 0.
3, 0.
** Section: BatOrtho
*Solid Section, elset=Batset, orientation=Ori-1, material=BatOrtho
,
*End Part
**  
*Part, name=CF
*Node
      1,        107.5,           0.,           0.
      2,        107.5,         110.,           0.
      3,           0.,         110.,           0.
      4,           0.,           0.,           0.
      5,        112.5,           0.,           0.
      6,        112.5,         110.,           0.
      7,         220.,           0.,           0.
      8,         220.,         110.,           0.
      9,        107.5,          10.,           0.
     10,        107.5,          20.,           0.
     11,        107.5,          30.,           0.
     12,        107.5,          40.,           0.
     13,        107.5,          50.,           0.
     14,        107.5,          60.,           0.
     15,        107.5,          70.,           0.
     16,        107.5,          80.,           0.
     17,        107.5,          90.,           0.
     18,        107.5,         100.,           0.
     19,    97.727272,         110.,           0.
     20,   87.9545441,         110.,           0.
** ... 268 like lines cut
*Element, type=S4R
  1,   1,   9,  89,  48
  2,   9,  10,  90,  89
  3,  10,  11,  91,  90
  4,  11,  12,  92,  91
  5,  12,  13,  93,  92
  6,  13,  14,  94,  93
  7,  14,  15,  95,  94
  8,  15,  16,  96,  95
  9,  16,  17,  97,  96
 10,  17,  18,  98,  97
 11,  18,   2,  19,  98
 12,  48,  89,  99,  47
 13,  89,  90, 100,  99
 14,  90,  91, 101, 100
 15,  91,  92, 102, 101
 16,  92,  93, 103, 102
 17,  93,  94, 104, 103
 18,  94,  95, 105, 104
 19,  95,  96, 106, 105
 20,  96,  97, 107, 106
** ... 233 like lines cut
*Nset, nset=CF_set, generate
   1,  288,    1
*Elset, elset=CF_set, generate
   1,  253,    1
*Elset, elset=_CFtop_SPOS, internal, generate
   1,  253,    1
*Surface, type=ELEMENT, name=CFtop
_CFtop_SPOS, SPOS
*Elset, elset=_CFbot_SNEG, internal, generate
   1,  253,    1
*Surface, type=ELEMENT, name=CFbot
_CFbot_SNEG, SNEG
** Section: CF_sec
*Shell Section, elset=CF_set, composite
0.01, 3, CF_material, 0.
0.01, 3, CF_material, 90.
0.01, 3, CF_material, 0.
*End Part
**  
*Part, name=Polymer
*Node
      1,          10.,         100.,           0.
      2,          10.,          10.,           0.
      3,         210.,          10.,           0.
      4,         210.,         100.,           0.
      5,         220.,           0.,           0.
      6,           0.,           0.,           0.
      7,           0.,         110.,           0.
      8,         220.,         110.,           0.
      9,          10.,          10.,           3.
     10,          10.,         100.,           3.
     11,         210.,         100.,           3.
     12,         210.,          10.,           3.
     13,           0.,         110.,           3.
     14,           0.,           0.,           3.
     15,         220.,           0.,           3.
     16,         220.,         110.,           3.
     17,    159.18544,   57.9963722,           0.
     18,    159.18544,   57.9963722,           3.
     19,          10.,          90.,           0.
     20,          10.,          80.,           0.
** ... 246 like lines cut
*Element, type=C3D8R
 1,  21,  20, 101, 100, 140, 141, 191, 192
 2,  93,  92,  27,   2, 199, 200, 188,   9
 3,  29,  28,  91,  90, 186, 187, 201, 202
 4, 134, 133,  46,   3, 220, 221, 169,  12
 5, 124, 123,  54,   4, 230, 231, 161,  11
 6, 103, 102,  19,   1, 189, 190, 142,  10
 7,  56,  55, 122, 121, 159, 160, 232, 233
 8,  48,  47, 132, 131, 167, 168, 222, 223
 9, 100,  99,  22,  21, 192, 193, 139, 140
10,  24,  23,  98,  97, 137, 138, 194, 195
11,  97,  96,  25,  24, 195, 196, 136, 137
12,  26,  25,  96,  95, 135, 136, 196, 197
13,   2,  26,  95,  94,   9, 135, 197, 198
14,  93,   2,  94,   6, 199,   9, 198,  14
15,  90,  89,  30,  29, 202, 203, 185, 186
16,  32,  31,  88,  87, 183, 184, 204, 205
17,  87,  86,  33,  32, 205, 206, 182, 183
18,  35,  34,  85,  84, 180, 181, 207, 208
19,  84,  83,  36,  35, 208, 209, 179, 180
20,  38,  37,  82,  81, 177, 178, 210, 211
** ... 46 like lines cut
*Nset, nset=PolySet
   1,   2,   3,   4,   5,   6,   7,   8,   9,  10,  11,  12,  13,  14,  15,  16
  19,  20,  21,  22,  23,  24,  25,  26,  27,  28,  29,  30,  31,  32,  33,  34
  35,  36,  37,  38,  39,  40,  41,  42,  43,  44,  45,  46,  47,  48,  49,  50
  51,  52,  53,  54,  55,  56,  57,  58,  59,  60,  61,  62,  63,  64,  65,  66
  67,  68,  69,  70,  71,  72,  73,  74,  75,  76,  77,  78,  79,  80,  81,  82
  83,  84,  85,  86,  87,  88,  89,  90,  91,  92,  93,  94,  95,  96,  97,  98
  99, 100, 101, 102, 103, 104, 105, 106, 107, 108, 109, 110, 111, 112, 113, 114
 115, 116, 117, 118, 119, 120, 121, 122, 123, 124, 125, 126, 127, 128, 129, 130
 131, 132, 133, 134, 135, 136, 137, 138, 139, 140, 141, 142, 143, 144, 145, 146
 147, 148, 149, 150, 151, 152, 153, 154, 155, 156, 157, 158, 159, 160, 161, 162
 163, 164, 165, 166, 167, 168, 169, 170, 171, 172, 173, 174, 175, 176, 177, 178
 179, 180, 181, 182, 183, 184, 185, 186, 187, 188, 189, 190, 191, 192, 193, 194
 195, 196, 197, 198, 199, 200, 201, 202, 203, 204, 205, 206, 207, 208, 209, 210
 211, 212, 213, 214, 215, 216, 217, 218, 219, 220, 221, 222, 223, 224, 225, 226
 227, 228, 229, 230, 231, 232, 233, 234, 235, 236, 237, 238, 239, 240, 241, 242
 243, 244, 245, 246, 247, 248, 249, 250
*Elset, elset=PolySet, generate
  1,  62,   1
*Nset, nset=_PickedSet12, internal
  17,  18, 251, 252, 253, 254, 255, 256, 257, 258, 259, 260, 261, 262, 263, 264
 265, 266
*Elset, elset=_PickedSet12, internal, generate
 63,  66,   1
*Elset, elset=_PolyTop_S2, internal, generate
  1,  62,   1
*Surface, type=ELEMENT, name=PolyTop
_PolyTop_S2, S2
*Elset, elset=_PolyBot_S1, internal, generate
  1,  62,   1
*Surface, type=ELEMENT, name=PolyBot
_PolyBot_S1, S1
*Elset, elset=_Polymer-rivet-0_S4, internal
 63, 66
*Elset, elset=_Polymer-rivet-0_S5, internal
 63, 66
*Elset, elset=_Polymer-rivet-0_S3, internal
 64, 65
*Elset, elset=_Polymer-rivet-0_S6, internal
 64, 65
*Surface, type=ELEMENT, name=Polymer-rivet-0
_Polymer-rivet-0_S4, S4
_Polymer-rivet-0_S5, S5
_Polymer-rivet-0_S6, S6
_Polymer-rivet-0_S3, S3
*Elset, elset=_Polymer-rivet-top-0_S1, internal, generate
 63,  66,   1
*Surface, type=ELEMENT, name=Polymer-rivet-top-0
_Polymer-rivet-top-0_S1, S1
*Elset, elset=_Polymer-rivet-bot-0_S2, internal, generate
 63,  66,   1
*Surface, type=ELEMENT, name=Polymer-rivet-bot-0
_Polymer-rivet-bot-0_S2, S2
** Section: PolySec
*Solid Section, elset=PolySet, material=Polymer
,
** Section: PolySec
*Solid Section, elset=_PickedSet12, material=Polymer
,
*End Part
**  
**
** ASSEMBLY
**
*Assembly, name=Assembly
**  
*Instance, name=Polymer-1, part=Polymer
*End Instance
**  
*Instance, name=Battery-1, part=Battery
         10.,          10.,           0.
*End Instance
**  
*Instance, name=CF-1, part=CF
          0.,           0.,       -0.015
*End Instance
**  
*Instance, name=CF-2, part=CF
          0.,           0.,        3.015
*End Instance
**  
*Nset, nset=VerticalSupport, instance=CF-1
  3,  4,  7,  8, 29, 30, 31, 32, 33, 34, 35, 36, 37, 38, 69, 70
 71, 72, 73, 74, 75, 76, 77, 78
*Elset, elset=VerticalSupport, instance=CF-1
 111, 112, 113, 114, 115, 116, 117, 118, 119, 120, 121, 243, 244, 245, 246, 247
 248, 249, 250, 251, 252, 253
*Nset, nset=XDirSupport, instance=CF-1
 3, 4
*Nset, nset=YDirSupport, instance=CF-1
 7,
*Elset, elset=__PickedSurf12_SPOS, internal, instance=CF-2, generate
 122,  132,    1
*Surface, type=ELEMENT, name=_PickedSurf12, internal
__PickedSurf12_SPOS, SPOS
** Constraint: BatPoly-0
*Tie, name=BatPoly-0, adjust=no, position tolerance=0.05
Battery-1.Battery-rivet-0, Polymer-1.Polymer-rivet-0
** Constraint: CF1Bat
*Tie, name=CF1Bat, adjust=no, position tolerance=0.05
Battery-1.BatBot, CF-1.CFtop
** Constraint: CF1Poly
*Tie, name=CF1Poly, adjust=no, position tolerance=0.05
Polymer-1.PolyBot, CF-1.CFtop
** Constraint: CF1Poly-Rivet-0
*Tie, name=CF1Poly-Rivet-0, adjust=no, position tolerance=0.05
Polymer-1.Polymer-rivet-bot-0, CF-1.CFtop
** Constraint: CF2Bat
*Tie, name=CF2Bat, adjust=no, position tolerance=0.05
Battery-1.BatTop, CF-2.CFbot
** Constraint: CF2Poly
*Tie, name=CF2Poly, adjust=no, position tolerance=0.05
Polymer-1.PolyTop, CF-2.CFbot
** Constraint: CF2Poly-Rivet-0
*Tie, name=CF2Poly-Rivet-0, adjust=no, position tolerance=0.05
Polymer-1.Polymer-rivet-top-0, CF-2.CFbot
*End Assembly
** 
** MATERIALS
** 
*Material, name=BatOrtho
*Elastic, type=ENGINEERING CONSTANTS
1090.,1090., 500., 0.15, 0.15, 0.15, 474., 474.
 474.,
*Material, name=CF_material
*Elastic, type=LAMINA
30420.,4023., 0.29,2081.,2081.,1440.
*Material, name=Polymer
*Elastic
600., 0.3
** 
** INTERACTION PROPERTIES
** 
*Surface Interaction, name=NormCont
1.,
*Friction, slip tolerance=0.005
 0.3,
*Surface Behavior, pressure-overclosure=HARD
** ----------------------------------------------------------------
** 
** STEP: Loading
** 
*Step, name=Loading, nlgeom=NO
*Static
1., 1., 1e-05, 1.
** 
** BOUNDARY CONDITIONS
** 
** Name: VerticalSupport Type: Displacement/Rotation
*Boundary
VerticalSupport, 3, 3
** Name: XDirSupport Type: Displacement/Rotation
*Boundary
XDirSupport, 1, 1
** Name: YDirSupport Type: Displacement/Rotation
*Boundary
YDirSupport, 2, 2
** 
** LOADS
** 
** Name: Load-1   Type: Pressure
*Dsload
_PickedSurf12, P, 0.0181818
** 
** OUTPUT REQUESTS
** 
*Restart, write, frequency=0
** 
** FIELD OUTPUT: F-Output-1
** 
*Output, field
*Node Output
U, UR, UT
** 
** HISTORY OUTPUT: H-Output-1
** 
*Output, history, variable=PRESELECT
*End Step
