*Heading
** Job name: Job-1 Model name: Model-1
** Generated by: Abaqus/CAE Student Edition 2017
*Preprint, echo=NO, model=NO, history=NO, contact=NO
**
** PARTS
**
*Part, name=Battery
*Node
      1,   130.488251,   86.6619339,           0.
      2,   124.843658,          89.,           0.
      3,   119.199066,   86.6619339,           0.
      4,      116.861,   81.0173416,           0.
      5,   119.199066,   75.3727493,           0.
      6,   124.843658,   73.0346832,           0.
      7,   130.488251,   75.3727493,           0.
      8,   132.826309,   81.0173416,           0.
      9,         200.,           0.,           0.
     10,           0.,           0.,           0.
     11,           0.,          90.,           0.
     12,         200.,          90.,           0.
     13,   184.615387,           0.,           0.
     14,   169.230774,           0.,           0.
     15,   153.846161,           0.,           0.
     16,   138.461533,           0.,           0.
     17,    123.07692,           0.,           0.
     18,   107.692307,           0.,           0.
     19,   92.3076935,           0.,           0.
     20,   76.9230804,           0.,           0.
** ... 264 like lines cut
*Element, type=C3D8R
  1,   1,   8,  52,  38, 143, 150, 194, 180
  2, 133,  56,  66,  62, 275, 198, 208, 204
  3,  39,  69,  74,  40, 181, 211, 216, 182
  4,  52,  47,  63,  58, 194, 189, 205, 200
  5, 133,  62, 118,  65, 275, 204, 260, 207
  6,  56,  47,   7,  48, 198, 189, 149, 190
  7,   7,   6,  54,  48, 149, 148, 196, 190
  8,   5,  50,  55,  49, 147, 192, 197, 191
  9,  92, 112, 114,  95, 234, 254, 256, 237
 10, 100, 124, 106, 111, 242, 266, 248, 253
 11, 130,   2,   1,  38, 272, 144, 143, 180
 12,  61,  54,  49,  59, 203, 196, 191, 201
 13,  64,  68,  85,  72, 206, 210, 227, 214
 14, 138,  68, 136,  73, 280, 210, 278, 215
 15,  68,  64,  55, 132, 210, 206, 197, 274
 16,   5,  49,  54,   6, 147, 191, 196, 148
 17,  49,  55,  64,  59, 191, 197, 206, 201
 18,  34,  33,  90,  96, 176, 175, 232, 238
 19,  27,  76,  78,  28, 169, 218, 220, 170
 20, 127,  29,  28,  78, 269, 171, 170, 220
** ... 99 like lines cut
*Nset, nset=Batset, generate
   1,  284,    1
*Elset, elset=Batset, generate
   1,  119,    1
*Elset, elset=_BatTop_S2, internal, generate
   1,  119,    1
*Surface, type=ELEMENT, name=BatTop
_BatTop_S2, S2
*Elset, elset=_BatBot_S1, internal, generate
   1,  119,    1
*Surface, type=ELEMENT, name=BatBot
_BatBot_S1, S1
*Elset, elset=_Battery-rivet-0_S3, internal
 1, 7
*Elset, elset=_Battery-rivet-0_S4, internal
  11, 114
*Elset, elset=_Battery-rivet-0_S6, internal
 16,
*Elset, elset=_Battery-rivet-0_S5, internal, generate
 28,  30,   1
*Surface, type=ELEMENT, name=Battery-rivet-0
_Battery-rivet-0_S3, S3
_Battery-rivet-0_S4, S4
_Battery-rivet-0_S6, S6
_Battery-rivet-0_S5, S5
*Orientation, name=Ori-1
1., 0., 0., 0., 1., 0.
3, 0.
** Section: BatOrtho
*Solid Section, elset=Batset, orientation=Ori-1, material=BatOrtho
,
*End Part
**  
*Part, name=CF
*Node
      1,        107.5,           0.,           0.
      2,        107.5,         110.,           0.
      3,           0.,         110.,           0.
      4,           0.,           0.,           0.
      5,        112.5,           0.,           0.
      6,        112.5,         110.,           0.
      7,         220.,           0.,           0.
      8,         220.,         110.,           0.
      9,        107.5,   15.7142859,           0.
     10,        107.5,   31.4285717,           0.
     11,        107.5,   47.1428566,           0.
     12,        107.5,   62.8571434,           0.
     13,        107.5,   78.5714264,           0.
     14,        107.5,   94.2857132,           0.
     15,   92.1428604,         110.,           0.
     16,   76.7857132,         110.,           0.
     17,   61.4285698,         110.,           0.
     18,   46.0714302,         110.,           0.
     19,   30.7142849,         110.,           0.
     20,   15.3571424,         110.,           0.
** ... 108 like lines cut
*Element, type=S4R
 1,  1,  9, 57, 32
 2,  9, 10, 58, 57
 3, 10, 11, 59, 58
 4, 11, 12, 60, 59
 5, 12, 13, 61, 60
 6, 13, 14, 62, 61
 7, 14,  2, 15, 62
 8, 32, 57, 63, 31
 9, 57, 58, 64, 63
10, 58, 59, 65, 64
11, 59, 60, 66, 65
12, 60, 61, 67, 66
13, 61, 62, 68, 67
14, 62, 15, 16, 68
15, 31, 63, 69, 30
16, 63, 64, 70, 69
17, 64, 65, 71, 70
18, 65, 66, 72, 71
19, 66, 67, 73, 72
20, 67, 68, 74, 73
** ... 85 like lines cut
*Nset, nset=CF_set, generate
   1,  128,    1
*Elset, elset=CF_set, generate
   1,  105,    1
*Elset, elset=_CFtop_SPOS, internal, generate
   1,  105,    1
*Surface, type=ELEMENT, name=CFtop
_CFtop_SPOS, SPOS
*Elset, elset=_CFbot_SNEG, internal, generate
   1,  105,    1
*Surface, type=ELEMENT, name=CFbot
_CFbot_SNEG, SNEG
** Section: CF_sec
*Shell Section, elset=CF_set, composite
0.01, 3, CF_material, 0.
0.01, 3, CF_material, 90.
0.01, 3, CF_material, 0.
*End Part
**  
*Part, name=Polymer
*Node
      1,          10.,         100.,           0.
      2,          10.,          10.,           0.
      3,         210.,          10.,           0.
      4,         210.,         100.,           0.
      5,         220.,           0.,           0.
      6,           0.,           0.,           0.
      7,           0.,         110.,           0.
      8,         220.,         110.,           0.
      9,          10.,          10.,           3.
     10,          10.,         100.,           3.
     11,         210.,         100.,           3.
     12,         210.,          10.,           3.
     13,           0.,         110.,           3.
     14,           0.,           0.,           3.
     15,         220.,           0.,           3.
     16,         220.,         110.,           3.
     17,   142.826309,   91.0173416,           0.
     18,   142.826309,   91.0173416,           3.
     19,          10.,          85.,           0.
     20,          10.,          70.,           0.
** ... 204 like lines cut
*Element, type=C3D8R
 1,  22,  21, 198, 197,  94,  95, 219, 218
 2, 193, 192,  25,  24, 214, 213, 125, 126
 3,  26,  25, 192, 191, 124, 125, 213, 212
 4,  37,  36,  92,  91, 113, 114, 147, 148
 5,   4,  86,  85,  41,  11, 153, 154, 109
 6,   7,  72, 200, 201,  13, 127, 221, 222
 7,  83,  43,  42,  84, 156, 107, 108, 155
 8,  91,  90,  38,  37, 148, 149, 112, 113
 9, 195, 196,  68,  67, 216, 217, 131, 132
10,   2, 195,  67,   6,   9, 216, 132,  14
11,  62, 190, 191,  63, 137, 211, 212, 136
12, 189, 188,  29,  28, 210, 209, 121, 122
13, 188,  60,  59, 187, 209, 139, 140, 208
14, 187, 186,  31,  30, 208, 207, 119, 120
15,  34,  33, 184, 183, 116, 117, 205, 204
16,  57,  56, 184, 185, 142, 143, 205, 206
17,  56,  55, 183, 184, 143, 144, 204, 205
18, 181, 182,  54,  53, 202, 203, 145, 146
19,  55,  54, 182, 183, 144, 145, 203, 204
20,   3, 181,  53,   5,  12, 202, 146,  15
** ... 46 like lines cut
*Nset, nset=PolySet
   1,   2,   3,   4,   5,   6,   7,   8,   9,  10,  11,  12,  13,  14,  15,  16
  19,  20,  21,  22,  23,  24,  25,  26,  27,  28,  29,  30,  31,  32,  33,  34
  35,  36,  37,  38,  39,  40,  41,  42,  43,  44,  45,  46,  47,  48,  49,  50
  51,  52,  53,  54,  55,  56,  57,  58,  59,  60,  61,  62,  63,  64,  65,  66
  67,  68,  69,  70,  71,  72,  73,  74,  75,  76,  77,  78,  79,  80,  81,  82
  83,  84,  85,  86,  87,  88,  89,  90,  91,  92,  93,  94,  95,  96,  97,  98
  99, 100, 101, 102, 103, 104, 105, 106, 107, 108, 109, 110, 111, 112, 113, 114
 115, 116, 117, 118, 119, 120, 121, 122, 123, 124, 125, 126, 127, 128, 129, 130
 131, 132, 133, 134, 135, 136, 137, 138, 139, 140, 141, 142, 143, 144, 145, 146
 147, 148, 149, 150, 151, 152, 153, 154, 155, 156, 157, 158, 159, 160, 161, 162
 163, 164, 165, 166, 181, 182, 183, 184, 185, 186, 187, 188, 189, 190, 191, 192
 193, 194, 195, 196, 197, 198, 199, 200, 201, 202, 203, 204, 205, 206, 207, 208
 209, 210, 211, 212, 213, 214, 215, 216, 217, 218, 219, 220, 221, 222
*Elset, elset=PolySet, generate
  1,  62,   1
*Nset, nset=_PickedSet12, internal
  17,  18, 167, 168, 169, 170, 171, 172, 173, 174, 175, 176, 177, 178, 179, 180
 223, 224
*Elset, elset=_PickedSet12, internal, generate
 63,  66,   1
*Elset, elset=_PolyTop_S2, internal, generate
  1,  62,   1
*Surface, type=ELEMENT, name=PolyTop
_PolyTop_S2, S2
*Elset, elset=_PolyBot_S1, internal, generate
  1,  62,   1
*Surface, type=ELEMENT, name=PolyBot
_PolyBot_S1, S1
*Elset, elset=_Polymer-rivet-0_S3, internal
 63, 65, 66
*Elset, elset=_Polymer-rivet-0_S6, internal
 63, 65, 66
*Elset, elset=_Polymer-rivet-0_S4, internal
 64,
*Elset, elset=_Polymer-rivet-0_S5, internal
 64,
*Surface, type=ELEMENT, name=Polymer-rivet-0
_Polymer-rivet-0_S3, S3
_Polymer-rivet-0_S6, S6
_Polymer-rivet-0_S4, S4
_Polymer-rivet-0_S5, S5
*Elset, elset=_Polymer-rivet-top-0_S1, internal, generate
 63,  66,   1
*Surface, type=ELEMENT, name=Polymer-rivet-top-0
_Polymer-rivet-top-0_S1, S1
*Elset, elset=_Polymer-rivet-bot-0_S2, internal, generate
 63,  66,   1
*Surface, type=ELEMENT, name=Polymer-rivet-bot-0
_Polymer-rivet-bot-0_S2, S2
** Section: PolySec
*Solid Section, elset=PolySet, material=Polymer
,
** Section: PolySec
*Solid Section, elset=_PickedSet12, material=Polymer
,
*End Part
**  
**
** ASSEMBLY
**
*Assembly, name=Assembly
**  
*Instance, name=Polymer-1, part=Polymer
*End Instance
**  
*Instance, name=Battery-1, part=Battery
         10.,          10.,           0.
*End Instance
**  
*Instance, name=CF-1, part=CF
          0.,           0.,       -0.015
*End Instance
**  
*Instance, name=CF-2, part=CF
          0.,           0.,        3.015
*End Instance
**  
*Nset, nset=VerticalSupport, instance=CF-1
  3,  4,  7,  8, 21, 22, 23, 24, 25, 26, 45, 46, 47, 48, 49, 50
*Elset, elset=VerticalSupport, instance=CF-1
  43,  44,  45,  46,  47,  48,  49,  99, 100, 101, 102, 103, 104, 105
*Nset, nset=XDirSupport, instance=CF-1
 3, 4
*Nset, nset=YDirSupport, instance=CF-1
 7,
*Elset, elset=__PickedSurf12_SPOS, internal, instance=CF-2, generate
 50,  56,   1
*Surface, type=ELEMENT, name=_PickedSurf12, internal
__PickedSurf12_SPOS, SPOS
** Constraint: BatPoly-0
*Tie, name=BatPoly-0, adjust=no, position tolerance=0.05
Battery-1.Battery-rivet-0, Polymer-1.Polymer-rivet-0
** Constraint: CF1Bat
*Tie, name=CF1Bat, adjust=no, position tolerance=0.05
Battery-1.BatBot, CF-1.CFtop
** Constraint: CF1Poly
*Tie, name=CF1Poly, adjust=no, position tolerance=0.05
Polymer-1.PolyBot, CF-1.CFtop
** Constraint: CF1Poly-Rivet-0
*Tie, name=CF1Poly-Rivet-0, adjust=no, position tolerance=0.05
Polymer-1.Polymer-rivet-bot-0, CF-1.CFtop
** Constraint: CF2Bat
*Tie, name=CF2Bat, adjust=no, position tolerance=0.05
Battery-1.BatTop, CF-2.CFbot
** Constraint: CF2Poly
*Tie, name=CF2Poly, adjust=no, position tolerance=0.05
Polymer-1.PolyTop, CF-2.CFbot
** Constraint: CF2Poly-Rivet-0
*Tie, name=CF2Poly-Rivet-0, adjust=no, position tolerance=0.05
Polymer-1.Polymer-rivet-top-0, CF-2.CFbot
*End Assembly
** 
** MATERIALS
** 
*Material, name=BatOrtho
*Elastic, type=ENGINEERING CONSTANTS
1090.,1090., 500., 0.15, 0.15, 0.15, 474., 474.
 474.,
*Material, name=CF_material
*Elastic, type=LAMINA
30420.,4023., 0.29,2081.,2081.,1440.
*Material, name=Polymer
*Elastic
600., 0.3
** 
** INTERACTION PROPERTIES
** 
*Surface Interaction, name=NormCont
1.,
*Friction, slip tolerance=0.005
 0.3,
*Surface Behavior, pressure-overclosure=HARD
** ----------------------------------------------------------------
** 
** STEP: Loading
** 
*Step, name=Loading, nlgeom=NO
*Static
1., 1., 1e-05, 1.
** 
** BOUNDARY CONDITIONS
** 
** Name: VerticalSupport Type: Displacement/Rotation
*Boundary
VerticalSupport, 3, 3
** Name: XDirSupport Type: Displacement/Rotation
*Boundary
XDirSupport, 1, 1
** Name: YDirSupport Type: Displacement/Rotation
*Boundary
YDirSupport, 2, 2
** 
** LOADS
** 
** Name: Load-1   Type: Pressure
*Dsload
_PickedSurf12, P, 0.0181818
** 
** OUTPUT REQUESTS
** 
*Restart, write, frequency=0
** 
** FIELD OUTPUT: F-Output-1
** 
*Output, field
*Node Output
U, UR, UT
** 
** HISTORY OUTPUT: H-Output-1
** 
*Output, history, variable=PRESELECT
*End Step
