*Heading
** Job name: Job-1 Model name: Model-1
** Generated by: Abaqus/CAE Student Edition 2017
*Preprint, echo=NO, model=NO, history=NO, contact=NO
**
** PARTS
**
*Part, name=Battery
*Node
      1,   42.1213188,   42.1213188,           0.
      2,          40.,          43.,           0.
      3,   37.8786812,   42.1213188,           0.
      4,          37.,          40.,           0.
      5,   37.8786812,   37.8786812,           0.
      6,          40.,          37.,           0.
      7,   42.1213188,   37.8786812,           0.
      8,          43.,          40.,           0.
      9,         180.,           0.,           0.
     10,           0.,           0.,           0.
     11,           0.,          90.,           0.
     12,         180.,          90.,           0.
     13,         165.,           0.,           0.
     14,         150.,           0.,           0.
     15,         135.,           0.,           0.
     16,         120.,           0.,           0.
     17,         105.,           0.,           0.
     18,          90.,           0.,           0.
     19,          75.,           0.,           0.
     20,          60.,           0.,           0.
** ... 318 like lines cut
*Element, type=C3D8R
  1, 128,  38,  37, 115, 297, 207, 206, 284
  2,  61, 154,  87,  76, 230, 323, 256, 245
  3,  90,  82,  70,  62, 259, 251, 239, 231
  4,  59,  46,   2,  45, 228, 215, 171, 214
  5,  53,  70,  82,  74, 222, 239, 251, 243
  6,   3,  52,  66, 153, 172, 221, 235, 322
  7,  50, 152,  65,  54, 219, 321, 234, 223
  8,  72,  57, 151,  64, 241, 226, 320, 233
  9,  85,  95,  79,  71, 254, 264, 248, 240
 10, 124, 119, 130, 141, 293, 288, 299, 310
 11, 114,  41,  40, 112, 283, 210, 209, 281
 12, 130, 119, 111, 131, 299, 288, 280, 300
 13,   1,  48,  61, 150, 170, 217, 230, 319
 14,   1,   8,  58,  48, 170, 177, 227, 217
 15,   2,   1, 150,  45, 171, 170, 319, 214
 16,  47,  78, 154,  58, 216, 247, 323, 227
 17, 151,  57,  63,  49, 320, 226, 232, 218
 18,  55,  47,   7,  49, 224, 216, 176, 218
 19,  64, 151,   6,  50, 233, 320, 175, 219
 20,  23, 108,  24,  10, 192, 277, 193, 179
** ... 127 like lines cut
*Nset, nset=Batset, generate
   1,  338,    1
*Elset, elset=Batset, generate
   1,  147,    1
*Elset, elset=_BatTop_S2, internal, generate
   1,  147,    1
*Surface, type=ELEMENT, name=BatTop
_BatTop_S2, S2
*Elset, elset=_BatBot_S1, internal, generate
   1,  147,    1
*Surface, type=ELEMENT, name=BatBot
_BatBot_S1, S1
*Elset, elset=_Battery-rivet-1_S3, internal
 14, 15
*Elset, elset=_Battery-rivet-1_S6, internal
 21, 22, 24, 40, 42
*Elset, elset=_Battery-rivet-1_S4, internal
 38,
*Surface, type=ELEMENT, name=Battery-rivet-1
_Battery-rivet-1_S3, S3
_Battery-rivet-1_S6, S6
_Battery-rivet-1_S4, S4
*Orientation, name=Ori-1
1., 0., 0., 0., 1., 0.
3, 0.
** Section: BatOrtho
*Solid Section, elset=Batset, orientation=Ori-1, material=BatOrtho
,
*End Part
**  
*Part, name=CF
*Node
      1,         97.5,           0.,           0.
      2,         97.5,         110.,           0.
      3,           0.,         110.,           0.
      4,           0.,           0.,           0.
      5,        102.5,           0.,           0.
      6,        102.5,         110.,           0.
      7,         200.,           0.,           0.
      8,         200.,         110.,           0.
      9,         97.5,   15.7142859,           0.
     10,         97.5,   31.4285717,           0.
     11,         97.5,   47.1428566,           0.
     12,         97.5,   62.8571434,           0.
     13,         97.5,   78.5714264,           0.
     14,         97.5,   94.2857132,           0.
     15,   83.5714264,         110.,           0.
     16,   69.6428604,         110.,           0.
     17,   55.7142868,         110.,           0.
     18,   41.7857132,         110.,           0.
     19,   27.8571434,         110.,           0.
     20,   13.9285717,         110.,           0.
** ... 108 like lines cut
*Element, type=S4R
 1,  1,  9, 57, 32
 2,  9, 10, 58, 57
 3, 10, 11, 59, 58
 4, 11, 12, 60, 59
 5, 12, 13, 61, 60
 6, 13, 14, 62, 61
 7, 14,  2, 15, 62
 8, 32, 57, 63, 31
 9, 57, 58, 64, 63
10, 58, 59, 65, 64
11, 59, 60, 66, 65
12, 60, 61, 67, 66
13, 61, 62, 68, 67
14, 62, 15, 16, 68
15, 31, 63, 69, 30
16, 63, 64, 70, 69
17, 64, 65, 71, 70
18, 65, 66, 72, 71
19, 66, 67, 73, 72
20, 67, 68, 74, 73
** ... 85 like lines cut
*Nset, nset=CF_set, generate
   1,  128,    1
*Elset, elset=CF_set, generate
   1,  105,    1
*Elset, elset=_CFtop_SPOS, internal, generate
   1,  105,    1
*Surface, type=ELEMENT, name=CFtop
_CFtop_SPOS, SPOS
*Elset, elset=_CFbot_SNEG, internal, generate
   1,  105,    1
*Surface, type=ELEMENT, name=CFbot
_CFbot_SNEG, SNEG
** Section: CF_sec
*Shell Section, elset=CF_set, composite
0.01, 3, CF_material, 0.
0.01, 3, CF_material, 90.
0.01, 3, CF_material, 0.
*End Part
**  
*Part, name=Polymer
*Node
      1,          10.,         100.,           0.
      2,          10.,          10.,           0.
      3,         190.,          10.,           0.
      4,         190.,         100.,           0.
      5,         200.,           0.,           0.
      6,           0.,           0.,           0.
      7,           0.,         110.,           0.
      8,         200.,         110.,           0.
      9,          10.,          10.,           3.
     10,          10.,         100.,           3.
     11,         190.,         100.,           3.
     12,         190.,          10.,           3.
     13,           0.,         110.,           3.
     14,           0.,           0.,           3.
     15,         200.,           0.,           3.
     16,         200.,         110.,           3.
     17,          53.,          50.,           0.
     18,          53.,          50.,           3.
     19,          10.,          85.,           0.
     20,          10.,          70.,           0.
** ... 194 like lines cut
*Element, type=C3D8R
 1,  65,  21,  20,  66, 122,  89,  90, 121
 2,  61, 170, 169,  62, 126, 192, 191, 125
 3, 172,  26,  25, 171, 194, 116, 117, 193
 4,   3,  86,  85,  35,  12, 137, 138, 107
 5,  79, 181, 180,  80, 144, 203, 202, 143
 6,   1,  68,  67,  19,  10, 119, 120,  91
 7,  83,  37,  36,  84, 140, 105, 106, 139
 8,  64,  22,  21,  65, 123,  88,  89, 122
 9,  63,  23,  22,  64, 124,  87,  88, 123
10,   6,   2,  23,  63,  14,   9,  87, 124
11,  57, 174, 173,  58, 130, 196, 195, 129
12, 174,  57,  56, 175, 196, 130, 131, 197
13,  32, 179, 178,  33, 110, 201, 200, 109
14,  34,  33, 178,  52, 108, 109, 200, 135
15,   3,  34,  52,  51,  12, 108, 135, 136
16,  82,  38,  37,  83, 141, 104, 105, 140
17,  81,  39,  38,  82, 142, 103, 104, 141
18,   8,   4,  39,  81,  16,  11, 103, 142
19,  44, 185, 186,  45,  98, 207, 208,  97
20,  70, 189, 190,  71, 153, 211, 212, 152
** ... 44 like lines cut
*Nset, nset=PolySet
   1,   2,   3,   4,   5,   6,   7,   8,   9,  10,  11,  12,  13,  14,  15,  16
  19,  20,  21,  22,  23,  24,  25,  26,  27,  28,  29,  30,  31,  32,  33,  34
  35,  36,  37,  38,  39,  40,  41,  42,  43,  44,  45,  46,  47,  48,  49,  50
  51,  52,  53,  54,  55,  56,  57,  58,  59,  60,  61,  62,  63,  64,  65,  66
  67,  68,  69,  70,  71,  72,  73,  74,  75,  76,  77,  78,  79,  80,  81,  82
  83,  84,  85,  86,  87,  88,  89,  90,  91,  92,  93,  94,  95,  96,  97,  98
  99, 100, 101, 102, 103, 104, 105, 106, 107, 108, 109, 110, 111, 112, 113, 114
 115, 116, 117, 118, 119, 120, 121, 122, 123, 124, 125, 126, 127, 128, 129, 130
 131, 132, 133, 134, 135, 136, 137, 138, 139, 140, 141, 142, 143, 144, 145, 146
 147, 148, 149, 150, 151, 152, 153, 154, 169, 170, 171, 172, 173, 174, 175, 176
 177, 178, 179, 180, 181, 182, 183, 184, 185, 186, 187, 188, 189, 190, 191, 192
 193, 194, 195, 196, 197, 198, 199, 200, 201, 202, 203, 204, 205, 206, 207, 208
 209, 210, 211, 212
*Elset, elset=PolySet, generate
  1,  60,   1
*Nset, nset=_PickedSet12, internal
  17,  18, 155, 156, 157, 158, 159, 160, 161, 162, 163, 164, 165, 166, 167, 168
 213, 214
*Elset, elset=_PickedSet12, internal, generate
 61,  64,   1
*Elset, elset=_PolyTop_S2, internal, generate
  1,  60,   1
*Surface, type=ELEMENT, name=PolyTop
_PolyTop_S2, S2
*Elset, elset=_PolyBot_S1, internal, generate
  1,  60,   1
*Surface, type=ELEMENT, name=PolyBot
_PolyBot_S1, S1
*Elset, elset=_Polymer-rivet-1_S4, internal
 61, 64
*Elset, elset=_Polymer-rivet-1_S5, internal
 61, 64
*Elset, elset=_Polymer-rivet-1_S3, internal
 62, 63
*Elset, elset=_Polymer-rivet-1_S6, internal
 62, 63
*Surface, type=ELEMENT, name=Polymer-rivet-1
_Polymer-rivet-1_S4, S4
_Polymer-rivet-1_S5, S5
_Polymer-rivet-1_S6, S6
_Polymer-rivet-1_S3, S3
*Elset, elset=_Polymer-rivet-top-1_S1, internal, generate
 61,  64,   1
*Surface, type=ELEMENT, name=Polymer-rivet-top-1
_Polymer-rivet-top-1_S1, S1
*Elset, elset=_Polymer-rivet-bot-1_S2, internal, generate
 61,  64,   1
*Surface, type=ELEMENT, name=Polymer-rivet-bot-1
_Polymer-rivet-bot-1_S2, S2
** Section: PolySec
*Solid Section, elset=PolySet, material=Polymer
,
** Section: PolySec
*Solid Section, elset=_PickedSet12, material=Polymer
,
*End Part
**  
**
** ASSEMBLY
**
*Assembly, name=Assembly
**  
*Instance, name=Polymer-1, part=Polymer
*End Instance
**  
*Instance, name=Battery-1, part=Battery
         10.,          10.,           0.
*End Instance
**  
*Instance, name=CF-1, part=CF
          0.,           0.,       -0.015
*End Instance
**  
*Instance, name=CF-2, part=CF
          0.,           0.,        3.015
*End Instance
**  
*Nset, nset=VerticalSupport, instance=CF-1
  3,  4,  7,  8, 21, 22, 23, 24, 25, 26, 45, 46, 47, 48, 49, 50
*Elset, elset=VerticalSupport, instance=CF-1
  43,  44,  45,  46,  47,  48,  49,  99, 100, 101, 102, 103, 104, 105
*Nset, nset=XDirSupport, instance=CF-1
 3, 4
*Nset, nset=YDirSupport, instance=CF-1
 7,
*Elset, elset=__PickedSurf12_SPOS, internal, instance=CF-2, generate
 50,  56,   1
*Surface, type=ELEMENT, name=_PickedSurf12, internal
__PickedSurf12_SPOS, SPOS
** Constraint: BatPoly-1
*Tie, name=BatPoly-1, adjust=no, position tolerance=0.05
Battery-1.Battery-rivet-1, Polymer-1.Polymer-rivet-1
** Constraint: CF1Bat
*Tie, name=CF1Bat, adjust=no, position tolerance=0.05
Battery-1.BatBot, CF-1.CFtop
** Constraint: CF1Poly
*Tie, name=CF1Poly, adjust=no, position tolerance=0.05
Polymer-1.PolyBot, CF-1.CFtop
** Constraint: CF1Poly-Rivet-1
*Tie, name=CF1Poly-Rivet-1, adjust=no, position tolerance=0.05
Polymer-1.Polymer-rivet-bot-1, CF-1.CFtop
** Constraint: CF2Bat
*Tie, name=CF2Bat, adjust=no, position tolerance=0.05
Battery-1.BatTop, CF-2.CFbot
** Constraint: CF2Poly
*Tie, name=CF2Poly, adjust=no, position tolerance=0.05
Polymer-1.PolyTop, CF-2.CFbot
** Constraint: CF2Poly-Rivet-1
*Tie, name=CF2Poly-Rivet-1, adjust=no, position tolerance=0.05
Polymer-1.Polymer-rivet-top-1, CF-2.CFbot
*End Assembly
** 
** MATERIALS
** 
*Material, name=BatOrtho
*Elastic, type=ENGINEERING CONSTANTS
1090.,1090., 500., 0.15, 0.15, 0.15, 474., 474.
 474.,
*Material, name=CF_material
*Elastic, type=LAMINA
30420.,4023., 0.29,2081.,2081.,1440.
*Material, name=Polymer
*Elastic
600., 0.3
** 
** INTERACTION PROPERTIES
** 
*Surface Interaction, name=NormCont
1.,
*Friction, slip tolerance=0.005
 0.3,
*Surface Behavior, pressure-overclosure=HARD
** ----------------------------------------------------------------
** 
** STEP: Loading
** 
*Step, name=Loading, nlgeom=NO
*Static
1., 1., 1e-05, 1.
** 
** BOUNDARY CONDITIONS
** 
** Name: VerticalSupport Type: Displacement/Rotation
*Boundary
VerticalSupport, 3, 3
** Name: XDirSupport Type: Displacement/Rotation
*Boundary
XDirSupport, 1, 1
** Name: YDirSupport Type: Displacement/Rotation
*Boundary
YDirSupport, 2, 2
** 
** LOADS
** 
** Name: Load-1   Type: Pressure
*Dsload
_PickedSurf12, P, 0.000181818
** 
** OUTPUT REQUESTS
** 
*Restart, write, frequency=0
** 
** FIELD OUTPUT: F-Output-1
** 
*Output, field
*Node Output
U, UR, UT
** 
** HISTORY OUTPUT: H-Output-1
** 
*Output, history, variable=PRESELECT
*End Step
