*Heading
** Job name: 3PointBend Model name: Model-1
** Generated by: Abaqus/CAE 2019
*Preprint, echo=NO, model=NO, history=NO, contact=NO
**
** PARTS
**
*Part, name=Battery
*Node
      1,          90.,           0.,           0.
      2,           0.,           0.,           0.
      3,           0.,          90.,           0.
      4,          90.,          90.,           0.
      5,   20.8991375,   20.8991375,           0.
      6,          18.,   22.1000004,           0.
      7,   15.1008625,   20.8991375,           0.
      8,   13.8999996,          18.,           0.
      9,   15.1008625,   15.1008625,           0.
     10,          18.,   13.8999996,           0.
     11,   20.8991375,   15.1008625,           0.
     12,   22.1000004,          18.,           0.
     13,   56.8991394,   20.8991375,           0.
     14,          54.,   22.1000004,           0.
     15,   51.1008606,   20.8991375,           0.
     16,   49.9000015,          18.,           0.
     17,   51.1008606,   15.1008625,           0.
     18,          54.,   13.8999996,           0.
     19,   56.8991394,   15.1008625,           0.
     20,   58.0999985,          18.,           0.
** ... 1780 like lines cut
*Element, type=C3D8R
  1,  357,  178,  177,  221, 1257, 1078, 1077, 1121
  2,  174,  222,  546,  175, 1074, 1122, 1446, 1075
  3,  391,  172,  171,  390, 1291, 1072, 1071, 1290
  4,  269,   42,   41,  473, 1169,  942,  941, 1373
  5,  224,   40,  387,  479, 1124,  940, 1287, 1379
  6,  675,  226,   58,  480, 1575, 1126,  958, 1380
  7,  797,  469,  226,  642, 1697, 1369, 1126, 1542
  8,   83,   82,  481,  322,  983,  982, 1381, 1222
  9,  545,  227,   37,   44, 1445, 1127,  937,  944
 10,  875,  798,  771,  760, 1775, 1698, 1671, 1660
 11,  539,   21,   28,  229, 1439,  921,  928, 1129
 12,  263,  643,  511,  296, 1163, 1543, 1411, 1196
 13,  540,    5,   12,  231, 1440,  905,  912, 1131
 14,  655,  825,  626,  277, 1555, 1725, 1526, 1177
 15,  741,  710,  370,  510, 1641, 1610, 1270, 1410
 16,  361,  138,  137,  359, 1261, 1038, 1037, 1259
 17,  284,  135,  134,  234, 1184, 1035, 1034, 1134
 18,  549,  219,  218,  425, 1449, 1119, 1118, 1325
 19,  217,  216,  236,  235, 1117, 1116, 1136, 1135
 20,  236,  216,  215,  423, 1136, 1116, 1115, 1323
** ... 785 like lines cut
*Nset, nset=Batset, generate
    1,  1800,     1
*Elset, elset=Batset, generate
   1,  805,    1
*Elset, elset=_BatTop_S2, internal, generate
   1,  805,    1
*Surface, type=ELEMENT, name=BatTop
_BatTop_S2, S2
*Elset, elset=_BatBot_S1, internal, generate
   1,  805,    1
*Surface, type=ELEMENT, name=BatBot
_BatBot_S1, S1
*Orientation, name=Ori-1
1., 0., 0., 0., 1., 0.
3, 0.
** Section: BatOrtho
*Solid Section, elset=Batset, orientation=Ori-1, material=BatOrtho
,
*End Part
**  
*Part, name=CF
*Node
      1,           0.,           0.,           1.
      2,           0.,   3.85714293,           1.
      3,           0.,   7.71428585,           1.
      4,           0.,   11.5714283,           1.
      5,           0.,   15.4285717,           1.
      6,           0.,   19.2857151,           1.
      7,           0.,   23.1428566,           1.
      8,           0.,          27.,           1.
      9,           0.,   30.8571434,           1.
     10,           0.,   34.7142868,           1.
     11,           0.,   38.5714302,           1.
     12,           0.,   42.4285698,           1.
     13,           0.,   46.2857132,           1.
     14,           0.,   50.1428566,           1.
     15,           0.,          54.,           1.
     16,           0.,          56.,           1.
     17,           0.,   59.8571434,           1.
     18,           0.,   63.7142868,           1.
     19,           0.,   67.5714264,           1.
     20,           0.,   71.4285736,           1.
** ... 1720 like lines cut
*Element, type=C3D8R
  1,   61,   62,   92,   91,    1,    2,   32,   31
  2,   62,   63,   93,   92,    2,    3,   33,   32
  3,   63,   64,   94,   93,    3,    4,   34,   33
  4,   64,   65,   95,   94,    4,    5,   35,   34
  5,   65,   66,   96,   95,    5,    6,   36,   35
  6,   66,   67,   97,   96,    6,    7,   37,   36
  7,   67,   68,   98,   97,    7,    8,   38,   37
  8,   68,   69,   99,   98,    8,    9,   39,   38
  9,   69,   70,  100,   99,    9,   10,   40,   39
 10,   70,   71,  101,  100,   10,   11,   41,   40
 11,   71,   72,  102,  101,   11,   12,   42,   41
 12,   72,   73,  103,  102,   12,   13,   43,   42
 13,   73,   74,  104,  103,   13,   14,   44,   43
 14,   74,   75,  105,  104,   14,   15,   45,   44
 15,   75,   76,  106,  105,   15,   16,   46,   45
 16,   76,   77,  107,  106,   16,   17,   47,   46
 17,   77,   78,  108,  107,   17,   18,   48,   47
 18,   78,   79,  109,  108,   18,   19,   49,   48
 19,   79,   80,  110,  109,   19,   20,   50,   49
 20,   80,   81,  111,  110,   20,   21,   51,   50
** ... 792 like lines cut
*Nset, nset=CFset, generate
    1,  1740,     1
*Elset, elset=CFset, generate
   1,  812,    1
*Elset, elset=_CFtop_S3, internal, generate
   1,  812,    1
*Surface, type=ELEMENT, name=CFtop
_CFtop_S3, S3
*Elset, elset=_CFbot_S5, internal, generate
   1,  812,    1
*Surface, type=ELEMENT, name=CFbot
_CFbot_S5, S5
*Orientation, name=Ori-2
          0.,           1.,           0.,           1.,           0.,           0.
3, 0.
** Region: (CompositeLayup-1: Generated From Layup)
*Elset, elset=CompositeLayup-1, generate
   1,  812,    1
** Section: CompositeLayup-1
*Solid Section, elset=CompositeLayup-1, composite, orientation=Ori-2, stack direction=3, layup=CompositeLayup
0.5, 1, CF, 0., Ply-1
0.5, 1, CF, 90., Ply-2
0.5, 1, CF, 90., Ply-3
0.5, 1, CF, 0., Ply-4
*End Part
**  
*Part, name=Polymer
*Node
      1,         100.,          10.,           0.
      2,         100.,         100.,           0.
      3,          10.,         100.,           0.
      4,          10.,          10.,           0.
      5,         110.,           0.,           0.
      6,           0.,           0.,           0.
      7,           0.,         110.,           0.
      8,         110.,         110.,           0.
      9,         100.,         100.,           3.
     10,         100.,          10.,           3.
     11,          10.,          10.,           3.
     12,          10.,         100.,           3.
     13,           0.,         110.,           3.
     14,           0.,           0.,           3.
     15,         110.,           0.,           3.
     16,         110.,         110.,           3.
     17,   86.0999985,          82.,           0.
     18,   86.0999985,          82.,           3.
     19,   32.0999985,          28.,           0.
     20,   32.0999985,          28.,           3.
** ... 1910 like lines cut
*Element, type=C3D8R
  1,   61, 1192, 1193,   62,  325, 1594, 1595,  324
  2, 1195,   64,   63, 1194, 1597,  322,  323, 1596
  3,   64, 1196,  882,   65,  322, 1598, 1284,  321
  4, 1013, 1045,  290,  289, 1415, 1447,  515,  516
  5, 1240, 1188, 1045, 1013, 1642, 1590, 1447, 1415
  6, 1014, 1015,  292,  291, 1416, 1417,  513,  514
  7,  295,  294, 1016,  986,  510,  511, 1418, 1388
  8,   57, 1058, 1157,   58,  329, 1460, 1559,  328
  9,  880,   60,   59, 1057, 1282,  326,  327, 1459
 10,  879, 1104, 1057, 1157, 1281, 1506, 1459, 1559
 11, 1193, 1194,   63,   62, 1595, 1596,  323,  324
 12,   55, 1059, 1156,   56,  331, 1461, 1558,  330
 13,  986,  918,  296,  295, 1388, 1320,  509,  510
 14,  918,  987,  297,  296, 1320, 1389,  508,  509
 15,  987,  919,  298,  297, 1389, 1321,  507,  508
 16,  918, 1111,  878,  987, 1320, 1513, 1280, 1389
 17, 1142,  989,  988,  877, 1544, 1391, 1390, 1279
 18,   52,  876, 1086,   53,  334, 1278, 1488,  333
 19,   53, 1086, 1144,   54,  333, 1488, 1546,  332
 20,   54, 1144, 1059,   55,  332, 1546, 1461,  331
** ... 715 like lines cut
*Nset, nset=PolySet, generate
    1,  1930,     1
*Elset, elset=PolySet, generate
   1,  735,    1
*Elset, elset=_PolyTop_S2, internal
   1,   2,   3,   4,   5,   6,   7,   8,   9,  10,  11,  12,  13,  14,  15,  16
  17,  18,  19,  20,  21,  22,  23,  24,  25,  26,  27,  28,  29,  30,  31,  32
  33,  34,  35,  36,  37,  38,  39,  40,  41,  42,  43,  44,  45,  46,  47,  48
  49,  50,  51,  52,  53,  54,  55,  56,  57,  58,  59,  60,  61,  62,  63,  64
  65,  66,  67,  68,  69,  70,  71,  72,  73,  74,  75,  76,  77,  78,  79,  80
  81,  82,  83,  84,  85,  86,  87,  88,  89,  90,  91,  92,  93,  94,  95,  96
  97,  98,  99, 100, 101, 102, 103, 104, 105, 106, 107, 108, 109, 110, 111, 112
 113, 114, 115, 116, 117, 118, 119, 120, 121, 122, 123, 124, 125, 126, 127, 128
 129, 130, 131, 132, 133, 134, 135, 136, 137, 138, 139, 140, 141, 142, 143, 144
 145, 146, 147, 148, 149, 150, 151, 152, 153, 154, 155, 156, 157, 158, 159, 160
 161, 162, 163, 164, 165, 166, 167, 168, 169, 170, 171, 172, 173, 174, 175, 176
 177, 178, 179, 180, 181, 182, 183, 184, 185, 186, 187, 188, 189, 190, 191, 192
 193, 194, 195, 196, 197, 198, 199, 200, 201, 202, 203, 204, 205, 206, 207, 208
 209, 210, 211, 212, 213, 214, 215, 216, 217, 218, 219, 220, 221, 222, 223, 224
 225, 226, 227, 228, 229, 230, 231, 232, 233, 234, 235, 236, 237, 238, 239, 240
 241, 242, 243, 244, 245, 246, 247, 248, 249, 250, 251, 252, 253, 254, 255, 256
 257, 258, 259, 260, 261, 262, 263, 264, 265, 266, 267, 268, 269, 270, 271, 272
 273, 274, 275, 276, 277, 278, 279, 280, 281, 282, 283, 284, 285, 286, 287, 288
 289, 290, 291, 292, 293, 294, 295, 296, 297, 298, 299, 300, 301, 302, 303, 304
 305, 306, 307, 308, 309, 310, 311, 312, 313, 314, 315, 316, 317, 318, 319, 320
** ... 15 like lines cut
*Elset, elset=_PolyTop_S1, internal, generate
 537,  721,    1
*Surface, type=ELEMENT, name=PolyTop
_PolyTop_S2, S2
_PolyTop_S1, S1
*Elset, elset=_PolyBot_S1, internal
   1,   2,   3,   4,   5,   6,   7,   8,   9,  10,  11,  12,  13,  14,  15,  16
  17,  18,  19,  20,  21,  22,  23,  24,  25,  26,  27,  28,  29,  30,  31,  32
  33,  34,  35,  36,  37,  38,  39,  40,  41,  42,  43,  44,  45,  46,  47,  48
  49,  50,  51,  52,  53,  54,  55,  56,  57,  58,  59,  60,  61,  62,  63,  64
  65,  66,  67,  68,  69,  70,  71,  72,  73,  74,  75,  76,  77,  78,  79,  80
  81,  82,  83,  84,  85,  86,  87,  88,  89,  90,  91,  92,  93,  94,  95,  96
  97,  98,  99, 100, 101, 102, 103, 104, 105, 106, 107, 108, 109, 110, 111, 112
 113, 114, 115, 116, 117, 118, 119, 120, 121, 122, 123, 124, 125, 126, 127, 128
 129, 130, 131, 132, 133, 134, 135, 136, 137, 138, 139, 140, 141, 142, 143, 144
 145, 146, 147, 148, 149, 150, 151, 152, 153, 154, 155, 156, 157, 158, 159, 160
 161, 162, 163, 164, 165, 166, 167, 168, 169, 170, 171, 172, 173, 174, 175, 176
 177, 178, 179, 180, 181, 182, 183, 184, 185, 186, 187, 188, 189, 190, 191, 192
 193, 194, 195, 196, 197, 198, 199, 200, 201, 202, 203, 204, 205, 206, 207, 208
 209, 210, 211, 212, 213, 214, 215, 216, 217, 218, 219, 220, 221, 222, 223, 224
 225, 226, 227, 228, 229, 230, 231, 232, 233, 234, 235, 236, 237, 238, 239, 240
 241, 242, 243, 244, 245, 246, 247, 248, 249, 250, 251, 252, 253, 254, 255, 256
 257, 258, 259, 260, 261, 262, 263, 264, 265, 266, 267, 268, 269, 270, 271, 272
 273, 274, 275, 276, 277, 278, 279, 280, 281, 282, 283, 284, 285, 286, 287, 288
 289, 290, 291, 292, 293, 294, 295, 296, 297, 298, 299, 300, 301, 302, 303, 304
 305, 306, 307, 308, 309, 310, 311, 312, 313, 314, 315, 316, 317, 318, 319, 320
** ... 15 like lines cut
*Elset, elset=_PolyBot_S2, internal, generate
 537,  721,    1
*Surface, type=ELEMENT, name=PolyBot
_PolyBot_S1, S1
_PolyBot_S2, S2
*Elset, elset=_PolyInside_S5, internal
  97, 115, 118, 198, 199, 239, 247
*Elset, elset=_PolyInside_S6, internal
  98, 102, 105, 112, 113, 126, 130, 134, 137, 202, 241, 242, 246, 511
*Elset, elset=_PolyInside_S4, internal
 103, 114, 119, 122, 243, 244, 245, 501
*Elset, elset=_PolyInside_S3, internal
 240,
*Surface, type=ELEMENT, name=PolyInside
_PolyInside_S5, S5
_PolyInside_S6, S6
_PolyInside_S4, S4
_PolyInside_S3, S3
** Section: PolySec
*Solid Section, elset=PolySet, material=Polymer
,
*End Part
**  
**
** ASSEMBLY
**
*Assembly, name=Assembly
**  
*Instance, name=CF-1, part=CF
*End Instance
**  
*Instance, name=Battery-1, part=Battery
         10.,          10.,          -3.
*End Instance
**  
*Instance, name=Polymer-1, part=Polymer
          0.,           0.,          -3.
*End Instance
**  
*Instance, name=CF-2, part=CF
          0.,           0.,          -4.
*End Instance
**  
*Node
      1,          55.,          55.,           1.
*Nset, nset=BCedges, instance=CF-2
   31,   60,   91,  120,  151,  180,  211,  240,  271,  300,  331,  360,  391,  420,  451,  480
  511,  540,  571,  600,  631,  660,  691,  720,  751,  780,  811,  840,  871,  900,  931,  960
  991, 1020, 1051, 1080, 1111, 1140, 1171, 1200, 1231, 1260, 1291, 1320, 1351, 1380, 1411, 1440
 1471, 1500, 1531, 1560, 1591, 1620, 1651, 1680, 1711, 1740
*Elset, elset=BCedges, instance=CF-2
   1,  29,  30,  58,  59,  87,  88, 116, 117, 145, 146, 174, 175, 203, 204, 232
 233, 261, 262, 290, 291, 319, 320, 348, 349, 377, 378, 406, 407, 435, 436, 464
 465, 493, 494, 522, 523, 551, 552, 580, 581, 609, 610, 638, 639, 667, 668, 696
 697, 725, 726, 754, 755, 783, 784, 812
*Nset, nset=LoadSet, instance=CF-1
   15,   16,   75,   76,  135,  136,  195,  196,  255,  256,  315,  316,  375,  376,  435,  436
  495,  496,  555,  556,  615,  616,  675,  676,  735,  736,  795,  796,  855,  856,  915,  916
  975,  976, 1035, 1036, 1095, 1096, 1155, 1156, 1215, 1216, 1275, 1276, 1335, 1336, 1395, 1396
 1455, 1456, 1515, 1516, 1575, 1576, 1635, 1636, 1695, 1696
*Elset, elset=LoadSet, instance=CF-1, generate
  15,  798,   29
*Nset, nset=_PickedSet13, internal
 1,
*Elset, elset=_LoadSurf_S3, internal, instance=CF-1, generate
  15,  798,   29
*Surface, type=ELEMENT, name=LoadSurf
_LoadSurf_S3, S3
** Constraint: CF1Poly
*Tie, name=CF1Poly, adjust=yes
Polymer-1.PolyTop, CF-1.CFbot
** Constraint: PolyCF2
*Tie, name=PolyCF2, adjust=yes
CF-2.CFtop, Polymer-1.PolyBot
** Constraint: RigidDeform
*Rigid Body, ref node=_PickedSet13, tie nset=LoadSet
*End Assembly
** 
** MATERIALS
** 
*Material, name=BatOrtho
*Elastic, type=ENGINEERING CONSTANTS
1090., 109., 500., 0.15, 0.15, 0.15, 474., 474.
 474.,
*Material, name=CF
*Elastic, type=ENGINEERING CONSTANTS
30420.,  4023.,  4023.,   0.29,   0.29, 0.3928,  2081.,  2081.
  1440.,
*Material, name=Polymer
*Elastic
500., 0.3
** 
** INTERACTION PROPERTIES
** 
*Surface Interaction, name=NormCont
1.,
*Friction, slip tolerance=0.005
 0.3,
*Surface Behavior, pressure-overclosure=HARD
** 
** BOUNDARY CONDITIONS
** 
** Name: Pin Type: Displacement/Rotation
*Boundary
BCedges, 3, 3
** 
** INTERACTIONS
** 
** Interaction: CF1Bat
*Contact Pair, interaction=NormCont, type=SURFACE TO SURFACE
Battery-1.BatTop, CF-1.CFbot
** Interaction: CF2Bat
*Contact Pair, interaction=NormCont, type=SURFACE TO SURFACE
CF-2.CFtop, Battery-1.BatBot
** ----------------------------------------------------------------
** 
** STEP: Loading
** 
*Step, name=Loading, nlgeom=NO
*Static
1., 1., 1e-05, 1.
** 
** LOADS
** 
** Name: Pressure   Type: Pressure
*Dsload
LoadSurf, P, 2.27273
** 
** OUTPUT REQUESTS
** 
*Restart, write, frequency=0
** 
** FIELD OUTPUT: F-Output-1
** 
*Output, field
*Node Output
U, UR, UT
** 
** HISTORY OUTPUT: H-Output-1
** 
*Output, history, variable=PRESELECT
*End Step
