*Heading
** Job name: Job-16 Model name: Model-1
** Generated by: Abaqus/CAE 2019
*Preprint, echo=NO, model=NO, history=NO, contact=NO
**
** PARTS
**
*Part, name=Battery
*Node
      1,   32.5841751,   48.6958923,           0.
      2,    30.002924,   49.7650795,           0.
      3,   27.4216747,   48.6958923,           0.
      4,   26.3524857,   46.1146393,           0.
      5,   27.4216747,     43.53339,           0.
      6,    30.002924,   42.4641991,           0.
      7,   32.5841751,     43.53339,           0.
      8,   33.6533623,   46.1146393,           0.
      9,   60.8112869,   81.6338425,           0.
     10,   57.0350838,   85.4100418,           0.
     11,   54.3649063,   85.9411774,           0.
     12,    51.694725,   85.4100418,           0.
     13,   47.9185219,   81.6338425,           0.
     14,   47.3873901,   78.9636612,           0.
     15,   47.9185219,   76.2934799,           0.
     16,    51.694725,   72.5172806,           0.
     17,   54.3649063,    71.986145,           0.
     18,   57.0350838,   72.5172806,           0.
     19,   60.8112869,   76.2934799,           0.
     20,   61.3424187,   78.9636612,           0.
** ... 3817 like lines cut
*Element, type=C3D8R
   1,  392,  248,  247,  348, 1671, 1527, 1526, 1627
   2,  347,  244,  243,  389, 1626, 1523, 1522, 1668
   3,  486,  239,  238,  386, 1765, 1518, 1517, 1665
   4,  388,  241,  384,  487, 1667, 1520, 1663, 1766
   5,   73,   72,  239,  240, 1352, 1351, 1518, 1519
   6,  232,  212,   65,   64, 1511, 1491, 1344, 1343
   7,   64,   63,  290,  232, 1343, 1342, 1569, 1511
   8,  214,  213,   62,   61, 1493, 1492, 1341, 1340
   9,  473,  310,  460,  661, 1752, 1589, 1739, 1940
  10,   55,   54,  189, 1159, 1334, 1333, 1468, 2438
  11,   27,   26,   53,   52, 1306, 1305, 1332, 1331
  12,   22,   21,  199,  165, 1301, 1300, 1478, 1444
  13,  340,  418,  215,  292, 1619, 1697, 1494, 1571
  14,  152,  216,  292,  153, 1431, 1495, 1571, 1432
  15,  422,  341,  276,  218, 1701, 1620, 1555, 1497
  16,  276,  144,  143,  218, 1555, 1423, 1422, 1497
  17,  141,  219,  299,  142, 1420, 1498, 1578, 1421
  18,  218,  299,  358,  422, 1497, 1578, 1637, 1701
  19,  740,  816,  887,  424, 2019, 2095, 2166, 1703
  20,   36,  172,  308,  201, 1315, 1451, 1587, 1480
** ... 2384 like lines cut
*Nset, nset=Batset, generate
    1,  3837,     1
*Elset, elset=Batset, generate
    1,  2404,     1
*Elset, elset=_BatTop_S2, internal, generate
 1203,  2404,     1
*Surface, type=ELEMENT, name=BatTop
_BatTop_S2, S2
*Elset, elset=_BatBot_S1, internal, generate
    1,  1202,     1
*Surface, type=ELEMENT, name=BatBot
_BatBot_S1, S1
*Elset, elset=_Battery-rivet-0_S5, internal
   21,   44,  134, 1223, 1246, 1336
*Elset, elset=_Battery-rivet-0_S4, internal
   35,  152,  153,  158, 1237, 1354, 1355, 1360
*Elset, elset=_Battery-rivet-0_S6, internal
   48, 1250
*Surface, type=ELEMENT, name=Battery-rivet-0
_Battery-rivet-0_S5, S5
_Battery-rivet-0_S4, S4
_Battery-rivet-0_S6, S6
*Elset, elset=_Battery-rivet-1_S3, internal
   11,   12,  150, 1213, 1214, 1352
*Elset, elset=_Battery-rivet-1_S5, internal
   23,   24, 1225, 1226
*Elset, elset=_Battery-rivet-1_S6, internal
   54,   57, 1256, 1259
*Elset, elset=_Battery-rivet-1_S4, internal
  157, 1359
*Surface, type=ELEMENT, name=Battery-rivet-1
_Battery-rivet-1_S3, S3
_Battery-rivet-1_S5, S5
_Battery-rivet-1_S6, S6
_Battery-rivet-1_S4, S4
*Elset, elset=_Battery-rivet-2_S5, internal
   33,  117,  128,  175, 1235, 1319, 1330, 1377
*Elset, elset=_Battery-rivet-2_S4, internal
   37,  113,  166,  168,  173,  174,  176,  179, 1239, 1315, 1368, 1370, 1375, 1376, 1378, 1381
*Elset, elset=_Battery-rivet-2_S3, internal
  107,  124, 1309, 1326
*Elset, elset=_Battery-rivet-2_S6, internal
  114,  172, 1316, 1374
*Surface, type=ELEMENT, name=Battery-rivet-2
_Battery-rivet-2_S5, S5
_Battery-rivet-2_S4, S4
_Battery-rivet-2_S6, S6
_Battery-rivet-2_S3, S3
*Elset, elset=_Battery-rivet-3_S4, internal
   29,  200,  203,  208, 1231, 1402, 1405, 1410
*Elset, elset=_Battery-rivet-3_S3, internal
   85, 1287
*Elset, elset=_Battery-rivet-3_S5, internal
  100,  201, 1302, 1403
*Elset, elset=_Battery-rivet-3_S6, internal
  105, 1307
*Surface, type=ELEMENT, name=Battery-rivet-3
_Battery-rivet-3_S4, S4
_Battery-rivet-3_S3, S3
_Battery-rivet-3_S6, S6
_Battery-rivet-3_S5, S5
*Orientation, name=Ori-1
1., 0., 0., 0., 1., 0.
3, 0.
** Section: BatOrtho
*Solid Section, elset=Batset, orientation=Ori-1, material=BatOrtho
,
*End Part
**  
*Part, name=CF
*Node
      1,         52.5,           0.,           0.
      2,         52.5,         110.,           0.
      3,           0.,         110.,           0.
      4,           0.,           0.,           0.
      5,         57.5,           0.,           0.
      6,         57.5,         110.,           0.
      7,         110.,           0.,           0.
      8,         110.,         110.,           0.
      9,         52.5,   2.97297287,           0.
     10,         52.5,   5.94594574,           0.
     11,         52.5,   8.91891861,           0.
     12,         52.5,   11.8918915,           0.
     13,         52.5,   14.8648653,           0.
     14,         52.5,   17.8378372,           0.
     15,         52.5,   20.8108101,           0.
     16,         52.5,    23.783783,           0.
     17,         52.5,   26.7567558,           0.
     18,         52.5,   29.7297306,           0.
     19,         52.5,   32.7027016,           0.
     20,         52.5,   35.6756744,           0.
** ... 1462 like lines cut
*Element, type=S4R
  1,   1,   9, 223, 114
  2,   9,  10, 224, 223
  3,  10,  11, 225, 224
  4,  11,  12, 226, 225
  5,  12,  13, 227, 226
  6,  13,  14, 228, 227
  7,  14,  15, 229, 228
  8,  15,  16, 230, 229
  9,  16,  17, 231, 230
 10,  17,  18, 232, 231
 11,  18,  19, 233, 232
 12,  19,  20, 234, 233
 13,  20,  21, 235, 234
 14,  21,  22, 236, 235
 15,  22,  23, 237, 236
 16,  23,  24, 238, 237
 17,  24,  25, 239, 238
 18,  25,  26, 240, 239
 19,  26,  27, 241, 240
 20,  27,  28, 242, 241
** ... 1386 like lines cut
*Nset, nset=CF_set, generate
    1,  1482,     1
*Elset, elset=CF_set, generate
    1,  1406,     1
*Elset, elset=_CFtop_SPOS, internal, generate
    1,  1406,     1
*Surface, type=ELEMENT, name=CFtop
_CFtop_SPOS, SPOS
*Elset, elset=_CFbot_SNEG, internal, generate
    1,  1406,     1
*Surface, type=ELEMENT, name=CFbot
_CFbot_SNEG, SNEG
** Section: CF_sec
*Shell Section, elset=CF_set, composite
0.2, 3, CF_material, 0.
0.2, 3, CF_material, 90.
0.2, 3, CF_material, 90.
0.2, 3, CF_material, 0.
*End Part
**  
*Part, name=Polymer
*Node
      1,   71.3424225,   88.9636612,           0.
      2,   71.3424225,   88.9636612,           5.
      3,   65.5585709,   32.5146065,           0.
      4,   65.5585709,   32.5146065,           5.
      5,          10.,         100.,           0.
      6,          10.,          10.,           0.
      7,         100.,          10.,           0.
      8,         100.,         100.,           0.
      9,         110.,           0.,           0.
     10,           0.,           0.,           0.
     11,           0.,         110.,           0.
     12,         110.,         110.,           0.
     13,          10.,          10.,           5.
     14,          10.,         100.,           5.
     15,         100.,         100.,           5.
     16,         100.,          10.,           5.
     17,           0.,         110.,           5.
     18,           0.,           0.,           5.
     19,         110.,           0.,           5.
     20,         110.,         110.,           5.
** ... 2191 like lines cut
*Element, type=C3D8R
 1,  687,  686, 1784, 1792,   38,   37,  626,  634
 2, 1800,  685,  684, 1785,  642,   36,   35,  627
 3, 1792, 1805, 1794, 1783,  634,  647,  636,  625
 4, 1783,  688,  687, 1792,  625,   39,   38,  634
 5, 1797, 1796, 1787, 1798,  639,  638,  629,  640
 6, 1790, 1786, 1802, 1793,  632,  628,  644,  635
 7, 1804, 1801, 1786, 1790,  646,  643,  628,  632
 8,  675,  674, 1788, 1795,   26,   25,  630,  637
 9, 1789,  673,  688, 1783,  631,    1,   39,  625
10, 1791, 1795, 1788, 1794,  633,  637,  630,  636
11, 1791, 1790, 1793, 1787,  633,  632,  635,  629
12, 1800, 1785, 1806, 1805,  642,  627,  648,  647
13,  686,  685, 1800, 1784,   37,   36,  642,  626
14, 1785,  684,  683, 1801,  627,   35,   34,  643
15, 1801,  683,  682, 1786,  643,   34,   33,  628
16, 1786,  682,  681, 1802,  628,   33,   32,  644
17, 1802,  681,  680, 1803,  644,   32,   31,  645
18,  678, 1798, 1799,  679,   29,  640,  641,   30
19,  678,  677, 1797, 1798,   29,   28,  639,  640
20, 1805, 1792, 1784, 1800,  647,  634,  626,  642
** ... 1138 like lines cut
*Nset, nset=PolySet
    5,    6,    7,    8,    9,   10,   11,   12,   13,   14,   15,   16,   17,   18,   19,   20
   69,   70,   71,   72,   73,   74,   75,   76,   77,   78,   79,   80,   81,   82,   83,   84
   85,   86,   87,   88,   89,   90,   91,   92,   93,   94,   95,   96,   97,   98,   99,  100
  101,  102,  103,  104,  105,  106,  107,  108,  109,  110,  111,  112,  113,  114,  115,  116
  117,  118,  119,  120,  121,  122,  123,  124,  125,  126,  127,  128,  129,  130,  131,  132
  133,  134,  135,  136,  137,  138,  139,  140,  141,  142,  143,  144,  145,  146,  147,  148
  149,  150,  151,  152,  153,  154,  155,  156,  157,  158,  159,  160,  161,  162,  163,  164
  165,  166,  167,  168,  169,  170,  171,  172,  173,  174,  175,  176,  177,  178,  179,  180
  181,  182,  183,  184,  185,  186,  187,  188,  189,  190,  191,  192,  193,  194,  195,  196
  197,  198,  199,  200,  201,  202,  203,  204,  205,  206,  207,  208,  209,  210,  211,  212
  213,  214,  215,  216,  217,  218,  219,  220,  221,  222,  223,  224,  225,  226,  227,  228
  229,  230,  231,  232,  233,  234,  235,  236,  237,  238,  239,  240,  241,  242,  243,  244
  245,  246,  247,  248,  249,  250,  251,  252,  253,  254,  255,  256,  257,  258,  259,  260
  261,  262,  263,  264,  265,  266,  267,  268,  269,  270,  271,  272,  273,  274,  275,  276
  277,  278,  279,  280,  281,  282,  283,  284,  285,  286,  287,  288,  289,  290,  291,  292
  293,  294,  295,  296,  297,  298,  299,  300,  301,  302,  303,  304,  305,  306,  307,  308
  309,  310,  311,  312,  313,  314,  315,  316,  317,  318,  319,  320,  321,  322,  323,  324
  325,  326,  327,  328,  329,  330,  331,  332,  333,  334,  335,  336,  337,  338,  339,  340
  341,  342,  343,  344,  345,  346,  347,  348,  349,  350,  351,  352,  353,  354,  355,  356
  357,  358,  359,  360,  361,  362,  363,  364,  365,  366,  367,  368,  369,  370,  371,  372
** ... 106 like lines cut
*Elset, elset=PolySet, generate
   71,  1142,     1
*Nset, nset=_PickedSet12, internal
    3,    4,   55,   56,   57,   58,   59,   60,   61,   62,   63,   64,   65,   66,   67,   68
  689,  690,  691,  692,  693,  694,  695,  696,  697,  698, 1807
*Elset, elset=_PickedSet12, internal, generate
 63,  70,   1
*Nset, nset=_PickedSet17, internal
   21,   22,  597,  598,  599,  600,  601,  602,  603,  604,  605,  606,  607,  608,  609,  610
 1763, 1764, 1765, 1766, 1767, 1768, 1769, 1770, 1771, 1772, 2210
*Elset, elset=_PickedSet17, internal, generate
 1143,  1150,     1
*Nset, nset=_PickedSet22, internal
    1,    2,   25,   26,   27,   28,   29,   30,   31,   32,   33,   34,   35,   36,   37,   38
   39,   40,   41,   42,   43,   44,   45,   46,   47,   48,   49,   50,   51,   52,   53,   54
  625,  626,  627,  628,  629,  630,  631,  632,  633,  634,  635,  636,  637,  638,  639,  640
  641,  642,  643,  644,  645,  646,  647,  648,  649,  650,  651,  652,  653,  654,  655,  656
  657,  658,  659,  660,  661,  662,  663,  664,  665,  666,  667,  668,  669,  670,  671,  672
  673,  674,  675,  676,  677,  678,  679,  680,  681,  682,  683,  684,  685,  686,  687,  688
 1783, 1784, 1785, 1786, 1787, 1788, 1789, 1790, 1791, 1792, 1793, 1794, 1795, 1796, 1797, 1798
 1799, 1800, 1801, 1802, 1803, 1804, 1805, 1806
*Elset, elset=_PickedSet22, internal, generate
  1,  62,   1
*Nset, nset=_PickedSet27, internal
   23,   24,  611,  612,  613,  614,  615,  616,  617,  618,  619,  620,  621,  622,  623,  624
 1773, 1774, 1775, 1776, 1777, 1778, 1779, 1780, 1781, 1782, 2211
*Elset, elset=_PickedSet27, internal, generate
 1151,  1158,     1
*Elset, elset=_PolyTop_S2, internal, generate
  607,  1142,     1
*Surface, type=ELEMENT, name=PolyTop
_PolyTop_S2, S2
*Elset, elset=_PolyBot_S1, internal, generate
  71,  606,    1
*Surface, type=ELEMENT, name=PolyBot
_PolyBot_S1, S1
*Elset, elset=_Polymer-rivet-0_S4, internal
 63, 66, 67, 70
*Elset, elset=_Polymer-rivet-0_S5, internal
 63, 66, 67, 70
*Elset, elset=_Polymer-rivet-0_S3, internal
 64, 65, 68, 69
*Elset, elset=_Polymer-rivet-0_S6, internal
 64, 65, 68, 69
*Surface, type=ELEMENT, name=Polymer-rivet-0
_Polymer-rivet-0_S4, S4
_Polymer-rivet-0_S5, S5
_Polymer-rivet-0_S6, S6
_Polymer-rivet-0_S3, S3
*Elset, elset=_Polymer-rivet-top-0_S1, internal, generate
 67,  70,   1
*Surface, type=ELEMENT, name=Polymer-rivet-top-0
_Polymer-rivet-top-0_S1, S1
*Elset, elset=_Polymer-rivet-bot-0_S2, internal, generate
 63,  66,   1
*Surface, type=ELEMENT, name=Polymer-rivet-bot-0
_Polymer-rivet-bot-0_S2, S2
*Elset, elset=_Polymer-rivet-1_S3, internal
 1143, 1144, 1145, 1147, 1148, 1149
*Elset, elset=_Polymer-rivet-1_S6, internal
 1143, 1144, 1145, 1147, 1148, 1149
*Elset, elset=_Polymer-rivet-1_S4, internal
 1146, 1150
*Elset, elset=_Polymer-rivet-1_S5, internal
 1146, 1150
*Surface, type=ELEMENT, name=Polymer-rivet-1
_Polymer-rivet-1_S3, S3
_Polymer-rivet-1_S6, S6
_Polymer-rivet-1_S4, S4
_Polymer-rivet-1_S5, S5
*Elset, elset=_Polymer-rivet-top-1_S1, internal, generate
 1147,  1150,     1
*Surface, type=ELEMENT, name=Polymer-rivet-top-1
_Polymer-rivet-top-1_S1, S1
*Elset, elset=_Polymer-rivet-bot-1_S2, internal, generate
 1143,  1146,     1
*Surface, type=ELEMENT, name=Polymer-rivet-bot-1
_Polymer-rivet-bot-1_S2, S2
*Elset, elset=_Polymer-rivet-2_S3, internal
  1,  8, 13, 19, 27, 28, 32, 39, 44, 50, 58, 59
*Elset, elset=_Polymer-rivet-2_S4, internal
  2,  4,  9, 14, 15, 16, 17, 30, 33, 35, 40, 45, 46, 47, 48, 61
*Elset, elset=_Polymer-rivet-2_S6, internal
 18, 49
*Elset, elset=_Polymer-rivet-2_S5, internal
 21, 52
*Surface, type=ELEMENT, name=Polymer-rivet-2
_Polymer-rivet-2_S3, S3
_Polymer-rivet-2_S4, S4
_Polymer-rivet-2_S6, S6
_Polymer-rivet-2_S5, S5
*Elset, elset=_Polymer-rivet-top-2_S1, internal, generate
 32,  62,   1
*Surface, type=ELEMENT, name=Polymer-rivet-top-2
_Polymer-rivet-top-2_S1, S1
*Elset, elset=_Polymer-rivet-bot-2_S2, internal, generate
  1,  31,   1
*Surface, type=ELEMENT, name=Polymer-rivet-bot-2
_Polymer-rivet-bot-2_S2, S2
*Elset, elset=_Polymer-rivet-3_S4, internal
 1151, 1154, 1155, 1158
*Elset, elset=_Polymer-rivet-3_S5, internal
 1151, 1154, 1155, 1158
*Elset, elset=_Polymer-rivet-3_S3, internal
 1152, 1153, 1156, 1157
*Elset, elset=_Polymer-rivet-3_S6, internal
 1152, 1153, 1156, 1157
*Surface, type=ELEMENT, name=Polymer-rivet-3
_Polymer-rivet-3_S4, S4
_Polymer-rivet-3_S5, S5
_Polymer-rivet-3_S6, S6
_Polymer-rivet-3_S3, S3
*Elset, elset=_Polymer-rivet-top-3_S1, internal, generate
 1155,  1158,     1
*Surface, type=ELEMENT, name=Polymer-rivet-top-3
_Polymer-rivet-top-3_S1, S1
*Elset, elset=_Polymer-rivet-bot-3_S2, internal, generate
 1151,  1154,     1
*Surface, type=ELEMENT, name=Polymer-rivet-bot-3
_Polymer-rivet-bot-3_S2, S2
** Section: PolySec
*Solid Section, elset=_PickedSet22, material=Polymer
,
** Section: PolySec
*Solid Section, elset=_PickedSet12, material=Polymer
,
** Section: PolySec
*Solid Section, elset=PolySet, material=Polymer
,
** Section: PolySec
*Solid Section, elset=_PickedSet17, material=Polymer
,
** Section: PolySec
*Solid Section, elset=_PickedSet27, material=Polymer
,
*End Part
**  
**
** ASSEMBLY
**
*Assembly, name=Assembly
**  
*Instance, name=Polymer-1, part=Polymer
*End Instance
**  
*Instance, name=Battery-1, part=Battery
         10.,          10.,           0.
*End Instance
**  
*Instance, name=CF-1, part=CF
          0.,           0.,         -0.4
*End Instance
**  
*Instance, name=CF-2, part=CF
          0.,           0.,          5.4
*End Instance
**  
*Node
      1,          55.,          55.,    5.4000001
*Nset, nset=VerticalSupport, instance=CF-1
   3,   4,   7,   8,  62,  63,  64,  65,  66,  67,  68,  69,  70,  71,  72,  73
  74,  75,  76,  77,  78,  79,  80,  81,  82,  83,  84,  85,  86,  87,  88,  89
  90,  91,  92,  93,  94,  95,  96,  97, 170, 171, 172, 173, 174, 175, 176, 177
 178, 179, 180, 181, 182, 183, 184, 185, 186, 187, 188, 189, 190, 191, 192, 193
 194, 195, 196, 197, 198, 199, 200, 201, 202, 203, 204, 205
*Elset, elset=VerticalSupport, instance=CF-1
  630,  631,  632,  633,  634,  635,  636,  637,  638,  639,  640,  641,  642,  643,  644,  645
  646,  647,  648,  649,  650,  651,  652,  653,  654,  655,  656,  657,  658,  659,  660,  661
  662,  663,  664,  665,  666, 1370, 1371, 1372, 1373, 1374, 1375, 1376, 1377, 1378, 1379, 1380
 1381, 1382, 1383, 1384, 1385, 1386, 1387, 1388, 1389, 1390, 1391, 1392, 1393, 1394, 1395, 1396
 1397, 1398, 1399, 1400, 1401, 1402, 1403, 1404, 1405, 1406
*Nset, nset=XDirSupport, instance=CF-1
 3,
*Nset, nset=YDirSupport, instance=CF-1
 7,
*Nset, nset=rigid_loading_set, instance=CF-2
   1,   2,   5,   6,   9,  10,  11,  12,  13,  14,  15,  16,  17,  18,  19,  20
  21,  22,  23,  24,  25,  26,  27,  28,  29,  30,  31,  32,  33,  34,  35,  36
  37,  38,  39,  40,  41,  42,  43,  44, 115, 116, 117, 118, 119, 120, 121, 122
 123, 124, 125, 126, 127, 128, 129, 130, 131, 132, 133, 134, 135, 136, 137, 138
 139, 140, 141, 142, 143, 144, 145, 146, 147, 148, 149, 150, 151, 152, 835, 836
 837, 838, 839, 840, 841, 842, 843, 844, 845, 846, 847, 848, 849, 850, 851, 852
 853, 854, 855, 856, 857, 858, 859, 860, 861, 862, 863, 864, 865, 866, 867, 868
 869, 870
*Elset, elset=rigid_loading_set, instance=CF-2, generate
 667,  740,    1
*Nset, nset=_PickedSet14, internal
 1,
*Elset, elset=__PickedSurf15_SPOS, internal, instance=CF-2, generate
 667,  740,    1
*Surface, type=ELEMENT, name=_PickedSurf15, internal
__PickedSurf15_SPOS, SPOS
** Constraint: BatPoly-0
*Tie, name=BatPoly-0, adjust=no, position tolerance=1.
Battery-1.Battery-rivet-0, Polymer-1.Polymer-rivet-0
** Constraint: BatPoly-1
*Tie, name=BatPoly-1, adjust=no, position tolerance=1.
Battery-1.Battery-rivet-1, Polymer-1.Polymer-rivet-1
** Constraint: BatPoly-2
*Tie, name=BatPoly-2, adjust=no, position tolerance=1.
Battery-1.Battery-rivet-2, Polymer-1.Polymer-rivet-2
** Constraint: BatPoly-3
*Tie, name=BatPoly-3, adjust=no, position tolerance=1.
Battery-1.Battery-rivet-3, Polymer-1.Polymer-rivet-3
** Constraint: CF1Poly
*Tie, name=CF1Poly, adjust=no, position tolerance=1.
Polymer-1.PolyBot, CF-1.CFtop
** Constraint: CF1Poly-Rivet-0
*Tie, name=CF1Poly-Rivet-0, adjust=no, position tolerance=1.
Polymer-1.Polymer-rivet-bot-0, CF-1.CFtop
** Constraint: CF1Poly-Rivet-1
*Tie, name=CF1Poly-Rivet-1, adjust=no, position tolerance=1.
Polymer-1.Polymer-rivet-bot-1, CF-1.CFtop
** Constraint: CF1Poly-Rivet-2
*Tie, name=CF1Poly-Rivet-2, adjust=no, position tolerance=1.
Polymer-1.Polymer-rivet-bot-2, CF-1.CFtop
** Constraint: CF1Poly-Rivet-3
*Tie, name=CF1Poly-Rivet-3, adjust=no, position tolerance=1.
Polymer-1.Polymer-rivet-bot-3, CF-1.CFtop
** Constraint: CF2Poly
*Tie, name=CF2Poly, adjust=no, position tolerance=1.
Polymer-1.PolyTop, CF-2.CFbot
** Constraint: CF2Poly-Rivet-0
*Tie, name=CF2Poly-Rivet-0, adjust=no, position tolerance=1.
Polymer-1.Polymer-rivet-top-0, CF-2.CFbot
** Constraint: CF2Poly-Rivet-1
*Tie, name=CF2Poly-Rivet-1, adjust=no, position tolerance=1.
Polymer-1.Polymer-rivet-top-1, CF-2.CFbot
** Constraint: CF2Poly-Rivet-2
*Tie, name=CF2Poly-Rivet-2, adjust=no, position tolerance=1.
Polymer-1.Polymer-rivet-top-2, CF-2.CFbot
** Constraint: CF2Poly-Rivet-3
*Tie, name=CF2Poly-Rivet-3, adjust=no, position tolerance=1.
Polymer-1.Polymer-rivet-top-3, CF-2.CFbot
** Constraint: LoadingRigidBody
*Rigid Body, ref node=_PickedSet14, tie nset=rigid_loading_set
*End Assembly
** 
** MATERIALS
** 
*Material, name=BatOrtho
*Elastic, type=ENGINEERING CONSTANTS
1090., 109., 500., 0.15, 0.15, 0.15, 474., 474.
 474.,
*Material, name=CF_material
*Elastic, type=ENGINEERING CONSTANTS
30420.,  4023.,  4023.,   0.29,   0.29, 0.3928,  2081.,  2081.
  1440.,
*Material, name=Polymer
*Elastic
500., 0.3
** 
** INTERACTION PROPERTIES
** 
*Surface Interaction, name=NormCont
1.,
*Friction, slip tolerance=0.005
 0.3,
*Surface Behavior, pressure-overclosure=HARD
** 
** INTERACTIONS
** 
** Interaction: CF1Bat
*Contact Pair, interaction=NormCont, type=SURFACE TO SURFACE
Battery-1.BatBot, CF-1.CFtop
** Interaction: CF2Bat
*Contact Pair, interaction=NormCont, type=SURFACE TO SURFACE
Battery-1.BatTop, CF-2.CFbot
** ----------------------------------------------------------------
** 
** STEP: Loading
** 
*Step, name=Loading, nlgeom=NO
*Static
1., 1., 1e-05, 1.
** 
** BOUNDARY CONDITIONS
** 
** Name: VerticalSupport Type: Displacement/Rotation
*Boundary
VerticalSupport, 3, 3
** Name: XDirSupport Type: Displacement/Rotation
*Boundary
XDirSupport, 1, 1
** Name: YDirSupport Type: Displacement/Rotation
*Boundary
YDirSupport, 2, 2
** 
** LOADS
** 
** Name: Load-1   Type: Pressure
*Dsload
_PickedSurf15, P, 0.181818
** 
** OUTPUT REQUESTS
** 
*Restart, write, frequency=0
** 
** FIELD OUTPUT: F-Output-1
** 
*Output, field
*Node Output
U, UR, UT
*Element Output, directions=YES
EVOL, 
** 
** HISTORY OUTPUT: H-Output-1
** 
*Output, history, variable=PRESELECT
*End Step
