*Heading
** Job name: Job-36 Model name: Model-1
** Generated by: Abaqus/CAE 2019
*Preprint, echo=NO, model=NO, history=NO, contact=NO
**
** PARTS
**
*Part, name=Battery
*Node
      1,   58.1411858,   75.1277237,           0.
      2,   56.2332497,   77.5202026,           0.
      3,   53.4762039,   78.8479233,           0.
      4,   47.6590691,   77.5202026,           0.
      5,    45.751133,   75.1277237,           0.
      6,   45.0701981,   72.1443558,           0.
      7,    45.751133,   69.1609879,           0.
      8,   47.6590691,   66.7685165,           0.
      9,   50.4161148,   65.4407959,           0.
     10,   56.2332497,   66.7685165,           0.
     11,   58.1411858,   69.1609879,           0.
     12,   58.8221169,   72.1443558,           0.
     13,    67.735527,    51.057415,           0.
     14,   65.6142044,   51.9360962,           0.
     15,   63.4928856,    51.057415,           0.
     16,   62.6142082,   48.9360962,           0.
     17,   63.4928856,   46.8147736,           0.
     18,   65.6142044,   45.9360962,           0.
     19,    67.735527,   46.8147736,           0.
     20,   68.6142044,   48.9360962,           0.
** ... 3904 like lines cut
*Element, type=C3D8R
   1,  264,  123,  122,  263, 1572, 1431, 1430, 1571
   2,  512,  308,  422,  421, 1820, 1616, 1730, 1729
   3,  259,  260,  118,  117, 1567, 1568, 1426, 1425
   4,  106,  355,  251,  107, 1414, 1663, 1559, 1415
   5,  377,  104,  103,  356, 1685, 1412, 1411, 1664
   6,  500,  503,  648,  645, 1808, 1811, 1956, 1953
   7,  298,   88,   87,  240, 1606, 1396, 1395, 1548
   8,  181,   25,  176,  347, 1489, 1333, 1484, 1655
   9,  218,   75,   74,  207, 1526, 1383, 1382, 1515
  10,   68,  353,  357,   69, 1376, 1661, 1665, 1377
  11,  404,  358,  218,  207, 1712, 1666, 1526, 1515
  12,  353,   68,   67,  297, 1661, 1376, 1375, 1605
  13,  186,   35,   34,  161, 1494, 1343, 1342, 1469
  14,  189,   33,   32,  162, 1497, 1341, 1340, 1470
  15,  163,  191,  162,   32, 1471, 1499, 1470, 1340
  16,  240,   87,   86,  206, 1548, 1395, 1394, 1514
  17,  178,  346,  177,   23, 1486, 1654, 1485, 1331
  18,  697,  482,  185,  599, 2005, 1790, 1493, 1907
  19,  192,   16,   15,  164, 1500, 1324, 1323, 1472
  20,  164,   15,  170,  185, 1472, 1323, 1478, 1493
** ... 2444 like lines cut
*Nset, nset=Batset, generate
    1,  3924,     1
*Elset, elset=Batset, generate
    1,  2464,     1
*Elset, elset=_BatTop_S2, internal, generate
 1233,  2464,     1
*Surface, type=ELEMENT, name=BatTop
_BatTop_S2, S2
*Elset, elset=_BatBot_S1, internal, generate
    1,  1232,     1
*Surface, type=ELEMENT, name=BatBot
_BatBot_S1, S1
*Elset, elset=_Battery-rivet-0_S4, internal
   13,   14,   34,  146,  155, 1245, 1246, 1266, 1378, 1387
*Elset, elset=_Battery-rivet-0_S5, internal
  144,  148,  149, 1376, 1380, 1381
*Surface, type=ELEMENT, name=Battery-rivet-0
_Battery-rivet-0_S4, S4
_Battery-rivet-0_S5, S5
*Elset, elset=_Battery-rivet-1_S6, internal
   40,   78,   81, 1272, 1310, 1313
*Elset, elset=_Battery-rivet-1_S4, internal
   66,  163, 1298, 1395
*Elset, elset=_Battery-rivet-1_S5, internal
   84,  169, 1316, 1401
*Elset, elset=_Battery-rivet-1_S3, internal
  165, 1397
*Surface, type=ELEMENT, name=Battery-rivet-1
_Battery-rivet-1_S6, S6
_Battery-rivet-1_S4, S4
_Battery-rivet-1_S5, S5
_Battery-rivet-1_S3, S3
*Elset, elset=_Battery-rivet-2_S4, internal
   19,  126,  143,  145,  154,  158, 1251, 1358, 1375, 1377, 1386, 1390
*Elset, elset=_Battery-rivet-2_S3, internal
   35, 1267
*Elset, elset=_Battery-rivet-2_S5, internal
   49, 1281
*Surface, type=ELEMENT, name=Battery-rivet-2
_Battery-rivet-2_S4, S4
_Battery-rivet-2_S3, S3
_Battery-rivet-2_S5, S5
*Elset, elset=_Battery-rivet-3_S6, internal
   37, 1269
*Elset, elset=_Battery-rivet-3_S3, internal
   87,  157,  206,  255,  257,  299,  304, 1319, 1389, 1438, 1487, 1489, 1531, 1536
*Elset, elset=_Battery-rivet-3_S4, internal
  295,  296,  298,  301,  302, 1527, 1528, 1530, 1533, 1534
*Elset, elset=_Battery-rivet-3_S5, internal
  300, 1532
*Surface, type=ELEMENT, name=Battery-rivet-3
_Battery-rivet-3_S6, S6
_Battery-rivet-3_S3, S3
_Battery-rivet-3_S4, S4
_Battery-rivet-3_S5, S5
*Orientation, name=Ori-1
1., 0., 0., 0., 1., 0.
3, 0.
** Section: BatOrtho
*Solid Section, elset=Batset, orientation=Ori-1, material=BatOrtho
,
*End Part
**  
*Part, name=CF
*Node
      1,         52.5,           0.,           0.
      2,         52.5,         110.,           0.
      3,           0.,         110.,           0.
      4,           0.,           0.,           0.
      5,         57.5,           0.,           0.
      6,         57.5,         110.,           0.
      7,         110.,           0.,           0.
      8,         110.,         110.,           0.
      9,         52.5,   2.97297287,           0.
     10,         52.5,   5.94594574,           0.
     11,         52.5,   8.91891861,           0.
     12,         52.5,   11.8918915,           0.
     13,         52.5,   14.8648653,           0.
     14,         52.5,   17.8378372,           0.
     15,         52.5,   20.8108101,           0.
     16,         52.5,    23.783783,           0.
     17,         52.5,   26.7567558,           0.
     18,         52.5,   29.7297306,           0.
     19,         52.5,   32.7027016,           0.
     20,         52.5,   35.6756744,           0.
** ... 1462 like lines cut
*Element, type=S4R
  1,   1,   9, 223, 114
  2,   9,  10, 224, 223
  3,  10,  11, 225, 224
  4,  11,  12, 226, 225
  5,  12,  13, 227, 226
  6,  13,  14, 228, 227
  7,  14,  15, 229, 228
  8,  15,  16, 230, 229
  9,  16,  17, 231, 230
 10,  17,  18, 232, 231
 11,  18,  19, 233, 232
 12,  19,  20, 234, 233
 13,  20,  21, 235, 234
 14,  21,  22, 236, 235
 15,  22,  23, 237, 236
 16,  23,  24, 238, 237
 17,  24,  25, 239, 238
 18,  25,  26, 240, 239
 19,  26,  27, 241, 240
 20,  27,  28, 242, 241
** ... 1386 like lines cut
*Nset, nset=CF_set, generate
    1,  1482,     1
*Elset, elset=CF_set, generate
    1,  1406,     1
*Elset, elset=_CFtop_SPOS, internal, generate
    1,  1406,     1
*Surface, type=ELEMENT, name=CFtop
_CFtop_SPOS, SPOS
*Elset, elset=_CFbot_SNEG, internal, generate
    1,  1406,     1
*Surface, type=ELEMENT, name=CFbot
_CFbot_SNEG, SNEG
** Section: CF_sec
*Shell Section, elset=CF_set, composite
0.2, 3, CF_material, 0.
0.2, 3, CF_material, 90.
0.2, 3, CF_material, 90.
0.2, 3, CF_material, 0.
*End Part
**  
*Part, name=Polymer
*Node
      1,   78.6142044,   58.9360962,           0.
      2,   78.6142044,   58.9360962,           5.
      3,   61.5914612,   47.6242142,           0.
      4,   61.5914612,   47.6242142,           5.
      5,          10.,         100.,           0.
      6,          10.,          10.,           0.
      7,         100.,          10.,           0.
      8,         100.,         100.,           0.
      9,         110.,           0.,           0.
     10,           0.,           0.,           0.
     11,           0.,         110.,           0.
     12,         110.,         110.,           0.
     13,          10.,          10.,           5.
     14,          10.,         100.,           5.
     15,         100.,         100.,           5.
     16,         100.,          10.,           5.
     17,           0.,         110.,           5.
     18,           0.,           0.,           5.
     19,         110.,           0.,           5.
     20,         110.,         110.,           5.
** ... 2167 like lines cut
*Element, type=C3D8R
1, 1765,  629,  628,  627,  621,   30,   29,   28
2,  630,  629, 1765,  623,   31,   30,  621,    1
3,  626,  625, 1765,  627,   27,   26,  621,   28
4, 1765,  625,  624,  623,  621,   26,   25,    1
5,  622,   33,   34,   35, 1765,  629,  628,  627
6,   32,   33,  622,    2,  630,  629, 1765,  623
7,   36,   37,  622,   35,  626,  625, 1765,  627
8,  622,   37,   38,    2, 1765,  625,  624,  623
 9, 1766,  639,  638,  637,  631,   44,   43,   42
10,  640,  639, 1766,  633,   45,   44,  631,    3
11, 1766,  637,  636,  635,  631,   42,   41,   40
12, 1766,  635,  634,  633,  631,   40,   39,    3
13,  632,   47,   48,   49, 1766,  639,  638,  637
14,   46,   47,  632,    4,  640,  639, 1766,  633
15,  632,   49,   50,   51, 1766,  637,  636,  635
16,  632,   51,   52,    4, 1766,  635,  634,  633
  17,  975,  976,   67,   66, 2101, 2102, 1582, 1583
  18,   68,  977,  665,   69, 1581, 2103, 1791, 1580
  19,  796,  821,  222,  221, 1922, 1947, 1463, 1464
  20,  797,  798,  224,  223, 1923, 1924, 1461, 1462
** ... 1124 like lines cut
*Nset, nset=PolySet
    5,    6,    7,    8,    9,   10,   11,   12,   13,   14,   15,   16,   17,   18,   19,   20
   53,   54,   55,   56,   57,   58,   59,   60,   61,   62,   63,   64,   65,   66,   67,   68
   69,   70,   71,   72,   73,   74,   75,   76,   77,   78,   79,   80,   81,   82,   83,   84
   85,   86,   87,   88,   89,   90,   91,   92,   93,   94,   95,   96,   97,   98,   99,  100
  101,  102,  103,  104,  105,  106,  107,  108,  109,  110,  111,  112,  113,  114,  115,  116
  117,  118,  119,  120,  121,  122,  123,  124,  125,  126,  127,  128,  129,  130,  131,  132
  133,  134,  135,  136,  137,  138,  139,  140,  141,  142,  143,  144,  145,  146,  147,  148
  149,  150,  151,  152,  153,  154,  155,  156,  157,  158,  159,  160,  161,  162,  163,  164
  165,  166,  167,  168,  169,  170,  171,  172,  173,  174,  175,  176,  177,  178,  179,  180
  181,  182,  183,  184,  185,  186,  187,  188,  189,  190,  191,  192,  193,  194,  195,  196
  197,  198,  199,  200,  201,  202,  203,  204,  205,  206,  207,  208,  209,  210,  211,  212
  213,  214,  215,  216,  217,  218,  219,  220,  221,  222,  223,  224,  225,  226,  227,  228
  229,  230,  231,  232,  233,  234,  235,  236,  237,  238,  239,  240,  241,  242,  243,  244
  245,  246,  247,  248,  249,  250,  251,  252,  253,  254,  255,  256,  257,  258,  259,  260
  261,  262,  263,  264,  265,  266,  267,  268,  269,  270,  271,  272,  273,  274,  275,  276
  277,  278,  279,  280,  281,  282,  283,  284,  285,  286,  287,  288,  289,  290,  291,  292
  293,  294,  295,  296,  297,  298,  299,  300,  301,  302,  303,  304,  305,  306,  307,  308
  309,  310,  311,  312,  313,  314,  315,  316,  317,  318,  319,  320,  321,  322,  323,  324
  325,  326,  327,  328,  329,  330,  331,  332,  333,  334,  335,  336,  337,  338,  339,  340
  341,  342,  343,  344,  345,  346,  347,  348,  349,  350,  351,  352,  353,  354,  355,  356
** ... 106 like lines cut
*Elset, elset=PolySet, generate
   17,  1088,     1
*Nset, nset=_PickedSet12, internal
    3,    4,   39,   40,   41,   42,   43,   44,   45,   46,   47,   48,   49,   50,   51,   52
  631,  632,  633,  634,  635,  636,  637,  638,  639,  640, 1766
*Elset, elset=_PickedSet12, internal, generate
  9,  16,   1
*Nset, nset=_PickedSet17, internal
   21,   22,  581,  582,  583,  584,  585,  586,  587,  588,  589,  590,  591,  592,  593,  594
 1705, 1706, 1707, 1708, 1709, 1710, 1711, 1712, 1713, 1714, 2169
*Elset, elset=_PickedSet17, internal, generate
 1089,  1096,     1
*Nset, nset=_PickedSet22, internal
    1,    2,   25,   26,   27,   28,   29,   30,   31,   32,   33,   34,   35,   36,   37,   38
  621,  622,  623,  624,  625,  626,  627,  628,  629,  630, 1765
*Elset, elset=_PickedSet22, internal, generate
 1,  8,  1
*Nset, nset=_PickedSet27, internal
   23,   24,  595,  596,  597,  598,  599,  600,  601,  602,  603,  604,  605,  606,  607,  608
  609,  610,  611,  612,  613,  614,  615,  616,  617,  618,  619,  620, 1715, 1716, 1717, 1718
 1719, 1720, 1721, 1722, 1723, 1724, 1725, 1726, 1727, 1728, 1729, 1730, 1731, 1732, 1733, 1734
 1735, 1736, 1737, 1738, 1739, 1740, 1741, 1742, 1743, 1744, 1745, 1746, 1747, 1748, 1749, 1750
 1751, 1752, 1753, 1754, 1755, 1756, 1757, 1758, 1759, 1760, 1761, 1762, 1763, 1764, 2170, 2171
 2172, 2173, 2174, 2175, 2176, 2177, 2178, 2179, 2180, 2181, 2182, 2183, 2184, 2185, 2186, 2187
*Elset, elset=_PickedSet27, internal, generate
 1097,  1144,     1
*Elset, elset=_PolyTop_S2, internal, generate
  553,  1088,     1
*Surface, type=ELEMENT, name=PolyTop
_PolyTop_S2, S2
*Elset, elset=_PolyBot_S1, internal, generate
  17,  552,    1
*Surface, type=ELEMENT, name=PolyBot
_PolyBot_S1, S1
*Elset, elset=_Polymer-rivet-0_S4, internal
  9, 11, 12, 13, 15, 16
*Elset, elset=_Polymer-rivet-0_S5, internal
  9, 11, 12, 13, 15, 16
*Elset, elset=_Polymer-rivet-0_S3, internal
 10, 14
*Elset, elset=_Polymer-rivet-0_S6, internal
 10, 14
*Surface, type=ELEMENT, name=Polymer-rivet-0
_Polymer-rivet-0_S4, S4
_Polymer-rivet-0_S5, S5
_Polymer-rivet-0_S6, S6
_Polymer-rivet-0_S3, S3
*Elset, elset=_Polymer-rivet-top-0_S1, internal, generate
 13,  16,   1
*Surface, type=ELEMENT, name=Polymer-rivet-top-0
_Polymer-rivet-top-0_S1, S1
*Elset, elset=_Polymer-rivet-bot-0_S2, internal, generate
  9,  12,   1
*Surface, type=ELEMENT, name=Polymer-rivet-bot-0
_Polymer-rivet-bot-0_S2, S2
*Elset, elset=_Polymer-rivet-1_S3, internal
 1089, 1090, 1091, 1093, 1094, 1095
*Elset, elset=_Polymer-rivet-1_S6, internal
 1089, 1090, 1091, 1093, 1094, 1095
*Elset, elset=_Polymer-rivet-1_S4, internal
 1092, 1096
*Elset, elset=_Polymer-rivet-1_S5, internal
 1092, 1096
*Surface, type=ELEMENT, name=Polymer-rivet-1
_Polymer-rivet-1_S3, S3
_Polymer-rivet-1_S6, S6
_Polymer-rivet-1_S4, S4
_Polymer-rivet-1_S5, S5
*Elset, elset=_Polymer-rivet-top-1_S1, internal, generate
 1093,  1096,     1
*Surface, type=ELEMENT, name=Polymer-rivet-top-1
_Polymer-rivet-top-1_S1, S1
*Elset, elset=_Polymer-rivet-bot-1_S2, internal, generate
 1089,  1092,     1
*Surface, type=ELEMENT, name=Polymer-rivet-bot-1
_Polymer-rivet-bot-1_S2, S2
*Elset, elset=_Polymer-rivet-2_S4, internal
 1, 4, 5, 8
*Elset, elset=_Polymer-rivet-2_S5, internal
 1, 4, 5, 8
*Elset, elset=_Polymer-rivet-2_S3, internal
 2, 3, 6, 7
*Elset, elset=_Polymer-rivet-2_S6, internal
 2, 3, 6, 7
*Surface, type=ELEMENT, name=Polymer-rivet-2
_Polymer-rivet-2_S4, S4
_Polymer-rivet-2_S5, S5
_Polymer-rivet-2_S6, S6
_Polymer-rivet-2_S3, S3
*Elset, elset=_Polymer-rivet-top-2_S1, internal, generate
 5,  8,  1
*Surface, type=ELEMENT, name=Polymer-rivet-top-2
_Polymer-rivet-top-2_S1, S1
*Elset, elset=_Polymer-rivet-bot-2_S2, internal, generate
 1,  4,  1
*Surface, type=ELEMENT, name=Polymer-rivet-bot-2
_Polymer-rivet-bot-2_S2, S2
*Elset, elset=_Polymer-rivet-3_S4, internal
 1097, 1098, 1109, 1110, 1112, 1114, 1119, 1121, 1122, 1133, 1134, 1136, 1138, 1143
*Elset, elset=_Polymer-rivet-3_S3, internal
 1099, 1100, 1104, 1108, 1123, 1124, 1128, 1132
*Elset, elset=_Polymer-rivet-3_S6, internal
 1101, 1107, 1111, 1125, 1131, 1135
*Surface, type=ELEMENT, name=Polymer-rivet-3
_Polymer-rivet-3_S4, S4
_Polymer-rivet-3_S3, S3
_Polymer-rivet-3_S6, S6
*Elset, elset=_Polymer-rivet-top-3_S1, internal, generate
 1121,  1144,     1
*Surface, type=ELEMENT, name=Polymer-rivet-top-3
_Polymer-rivet-top-3_S1, S1
*Elset, elset=_Polymer-rivet-bot-3_S2, internal, generate
 1097,  1120,     1
*Surface, type=ELEMENT, name=Polymer-rivet-bot-3
_Polymer-rivet-bot-3_S2, S2
** Section: PolySec
*Solid Section, elset=_PickedSet22, material=Polymer
,
** Section: PolySec
*Solid Section, elset=_PickedSet12, material=Polymer
,
** Section: PolySec
*Solid Section, elset=PolySet, material=Polymer
,
** Section: PolySec
*Solid Section, elset=_PickedSet17, material=Polymer
,
** Section: PolySec
*Solid Section, elset=_PickedSet27, material=Polymer
,
*End Part
**  
**
** ASSEMBLY
**
*Assembly, name=Assembly
**  
*Instance, name=Polymer-1, part=Polymer
*End Instance
**  
*Instance, name=Battery-1, part=Battery
         10.,          10.,           0.
*End Instance
**  
*Instance, name=CF-1, part=CF
          0.,           0.,         -0.4
*End Instance
**  
*Instance, name=CF-2, part=CF
          0.,           0.,          5.4
*End Instance
**  
*Node
      1,          55.,          55.,    5.4000001
*Nset, nset=VerticalSupport, instance=CF-1
   3,   4,   7,   8,  62,  63,  64,  65,  66,  67,  68,  69,  70,  71,  72,  73
  74,  75,  76,  77,  78,  79,  80,  81,  82,  83,  84,  85,  86,  87,  88,  89
  90,  91,  92,  93,  94,  95,  96,  97, 170, 171, 172, 173, 174, 175, 176, 177
 178, 179, 180, 181, 182, 183, 184, 185, 186, 187, 188, 189, 190, 191, 192, 193
 194, 195, 196, 197, 198, 199, 200, 201, 202, 203, 204, 205
*Elset, elset=VerticalSupport, instance=CF-1
  630,  631,  632,  633,  634,  635,  636,  637,  638,  639,  640,  641,  642,  643,  644,  645
  646,  647,  648,  649,  650,  651,  652,  653,  654,  655,  656,  657,  658,  659,  660,  661
  662,  663,  664,  665,  666, 1370, 1371, 1372, 1373, 1374, 1375, 1376, 1377, 1378, 1379, 1380
 1381, 1382, 1383, 1384, 1385, 1386, 1387, 1388, 1389, 1390, 1391, 1392, 1393, 1394, 1395, 1396
 1397, 1398, 1399, 1400, 1401, 1402, 1403, 1404, 1405, 1406
*Nset, nset=XDirSupport, instance=CF-1
 3,
*Nset, nset=YDirSupport, instance=CF-1
 7,
*Nset, nset=rigid_loading_set, instance=CF-2
   1,   2,   5,   6,   9,  10,  11,  12,  13,  14,  15,  16,  17,  18,  19,  20
  21,  22,  23,  24,  25,  26,  27,  28,  29,  30,  31,  32,  33,  34,  35,  36
  37,  38,  39,  40,  41,  42,  43,  44, 115, 116, 117, 118, 119, 120, 121, 122
 123, 124, 125, 126, 127, 128, 129, 130, 131, 132, 133, 134, 135, 136, 137, 138
 139, 140, 141, 142, 143, 144, 145, 146, 147, 148, 149, 150, 151, 152, 835, 836
 837, 838, 839, 840, 841, 842, 843, 844, 845, 846, 847, 848, 849, 850, 851, 852
 853, 854, 855, 856, 857, 858, 859, 860, 861, 862, 863, 864, 865, 866, 867, 868
 869, 870
*Elset, elset=rigid_loading_set, instance=CF-2, generate
 667,  740,    1
*Nset, nset=_PickedSet14, internal
 1,
*Elset, elset=__PickedSurf15_SPOS, internal, instance=CF-2, generate
 667,  740,    1
*Surface, type=ELEMENT, name=_PickedSurf15, internal
__PickedSurf15_SPOS, SPOS
** Constraint: BatPoly-0
*Tie, name=BatPoly-0, adjust=no, position tolerance=1.
Battery-1.Battery-rivet-0, Polymer-1.Polymer-rivet-0
** Constraint: BatPoly-1
*Tie, name=BatPoly-1, adjust=no, position tolerance=1.
Battery-1.Battery-rivet-1, Polymer-1.Polymer-rivet-1
** Constraint: BatPoly-2
*Tie, name=BatPoly-2, adjust=no, position tolerance=1.
Battery-1.Battery-rivet-2, Polymer-1.Polymer-rivet-2
** Constraint: BatPoly-3
*Tie, name=BatPoly-3, adjust=no, position tolerance=1.
Battery-1.Battery-rivet-3, Polymer-1.Polymer-rivet-3
** Constraint: CF1Poly
*Tie, name=CF1Poly, adjust=no, position tolerance=1.
Polymer-1.PolyBot, CF-1.CFtop
** Constraint: CF1Poly-Rivet-0
*Tie, name=CF1Poly-Rivet-0, adjust=no, position tolerance=1.
Polymer-1.Polymer-rivet-bot-0, CF-1.CFtop
** Constraint: CF1Poly-Rivet-1
*Tie, name=CF1Poly-Rivet-1, adjust=no, position tolerance=1.
Polymer-1.Polymer-rivet-bot-1, CF-1.CFtop
** Constraint: CF1Poly-Rivet-2
*Tie, name=CF1Poly-Rivet-2, adjust=no, position tolerance=1.
Polymer-1.Polymer-rivet-bot-2, CF-1.CFtop
** Constraint: CF1Poly-Rivet-3
*Tie, name=CF1Poly-Rivet-3, adjust=no, position tolerance=1.
Polymer-1.Polymer-rivet-bot-3, CF-1.CFtop
** Constraint: CF2Poly
*Tie, name=CF2Poly, adjust=no, position tolerance=1.
Polymer-1.PolyTop, CF-2.CFbot
** Constraint: CF2Poly-Rivet-0
*Tie, name=CF2Poly-Rivet-0, adjust=no, position tolerance=1.
Polymer-1.Polymer-rivet-top-0, CF-2.CFbot
** Constraint: CF2Poly-Rivet-1
*Tie, name=CF2Poly-Rivet-1, adjust=no, position tolerance=1.
Polymer-1.Polymer-rivet-top-1, CF-2.CFbot
** Constraint: CF2Poly-Rivet-2
*Tie, name=CF2Poly-Rivet-2, adjust=no, position tolerance=1.
Polymer-1.Polymer-rivet-top-2, CF-2.CFbot
** Constraint: CF2Poly-Rivet-3
*Tie, name=CF2Poly-Rivet-3, adjust=no, position tolerance=1.
Polymer-1.Polymer-rivet-top-3, CF-2.CFbot
** Constraint: LoadingRigidBody
*Rigid Body, ref node=_PickedSet14, tie nset=rigid_loading_set
*End Assembly
** 
** MATERIALS
** 
*Material, name=BatOrtho
*Elastic, type=ENGINEERING CONSTANTS
1090., 109., 500., 0.15, 0.15, 0.15, 474., 474.
 474.,
*Material, name=CF_material
*Elastic, type=ENGINEERING CONSTANTS
30420.,  4023.,  4023.,   0.29,   0.29, 0.3928,  2081.,  2081.
  1440.,
*Material, name=Polymer
*Elastic
500., 0.3
** 
** INTERACTION PROPERTIES
** 
*Surface Interaction, name=NormCont
1.,
*Friction, slip tolerance=0.005
 0.3,
*Surface Behavior, pressure-overclosure=HARD
** 
** INTERACTIONS
** 
** Interaction: CF1Bat
*Contact Pair, interaction=NormCont, type=SURFACE TO SURFACE
Battery-1.BatBot, CF-1.CFtop
** Interaction: CF2Bat
*Contact Pair, interaction=NormCont, type=SURFACE TO SURFACE
Battery-1.BatTop, CF-2.CFbot
** ----------------------------------------------------------------
** 
** STEP: Loading
** 
*Step, name=Loading, nlgeom=NO
*Static
1., 1., 1e-05, 1.
** 
** BOUNDARY CONDITIONS
** 
** Name: VerticalSupport Type: Displacement/Rotation
*Boundary
VerticalSupport, 3, 3
** Name: XDirSupport Type: Displacement/Rotation
*Boundary
XDirSupport, 1, 1
** Name: YDirSupport Type: Displacement/Rotation
*Boundary
YDirSupport, 2, 2
** 
** LOADS
** 
** Name: Load-1   Type: Pressure
*Dsload
_PickedSurf15, P, 0.181818
** 
** OUTPUT REQUESTS
** 
*Restart, write, frequency=0
** 
** FIELD OUTPUT: F-Output-1
** 
*Output, field
*Node Output
U, UR, UT
*Element Output, directions=YES
EVOL, 
** 
** HISTORY OUTPUT: H-Output-1
** 
*Output, history, variable=PRESELECT
*End Step
