*Heading
** Job name: Job-28 Model name: Model-1
** Generated by: Abaqus/CAE 2019
*Preprint, echo=NO, model=NO, history=NO, contact=NO
**
** PARTS
**
*Part, name=Battery
*Node
      1,   49.4243355,   18.1630878,           0.
      2,   47.5898438,   20.2802029,           0.
      3,   42.5453339,    22.583952,           0.
      4,   39.7439919,    22.583952,           0.
      5,   34.6994781,   20.2802029,           0.
      6,   32.8649902,   18.1630878,           0.
      7,    31.302597,   12.8420658,           0.
      8,   32.8649902,    7.5210433,           0.
      9,   34.6994781,   5.40392876,           0.
     10,   39.7439919,     3.100178,           0.
     11,   42.5453339,     3.100178,           0.
     12,   47.5898438,   5.40392876,           0.
     13,   49.4243355,    7.5210433,           0.
     14,   50.9867287,   12.8420658,           0.
     15,   18.8981075,   8.12132072,           0.
     16,   16.7767868,           9.,           0.
     17,   14.6554661,   8.12132072,           0.
     18,   13.7767868,           6.,           0.
     19,   14.6554661,   3.87867975,           0.
     20,   16.7767868,           3.,           0.
** ... 3631 like lines cut
*Element, type=C3D8R
   1, 1085,  686,  404,  325, 2302, 1903, 1621, 1542
   2,  208,  292,  306,  258, 1425, 1509, 1523, 1475
   3, 1085,  126,  125,  258, 2302, 1343, 1342, 1475
   4,  208,  124,  123,   56, 1425, 1341, 1340, 1273
   5,  257,  120,  119,  256, 1474, 1337, 1336, 1473
   6,  256,  119,  118,  209, 1473, 1336, 1335, 1426
   7,  117,  210,  209,  118, 1334, 1427, 1426, 1335
   8,  479,  182,   16,  301, 1696, 1399, 1233, 1518
   9, 1081,  183,  311, 1098, 2298, 1400, 1528, 2315
  10, 1099,  238,  215, 1098, 2316, 1455, 1432, 2315
  11,  214,  309,   89,   88, 1431, 1526, 1306, 1305
  12, 1081,   19,   18,  183, 2298, 1236, 1235, 1400
  13,   20,  298,   84,   83, 1237, 1515, 1301, 1300
  14,  179,   20,   83,   82, 1396, 1237, 1300, 1299
  15,   72,  205,   54,   73, 1289, 1422, 1271, 1290
  16,   14,   55,  199,  207, 1231, 1272, 1416, 1424
  17,  475,  399,  185,  395, 1692, 1616, 1402, 1612
  18,  476,  175,  302,  390, 1693, 1392, 1519, 1607
  19,  549,  392,  175,  476, 1766, 1609, 1392, 1693
  20,  170,  169,  277,  218, 1387, 1386, 1494, 1435
** ... 2246 like lines cut
*Nset, nset=Batset, generate
    1,  3651,     1
*Elset, elset=Batset, generate
    1,  2266,     1
*Elset, elset=_BatTop_S2, internal, generate
 1134,  2266,     1
*Surface, type=ELEMENT, name=BatTop
_BatTop_S2, S2
*Elset, elset=_BatBot_S1, internal, generate
    1,  1133,     1
*Surface, type=ELEMENT, name=BatBot
_BatBot_S1, S1
*Elset, elset=_Battery-rivet-0_S5, internal
  148,  153,  162, 1281, 1286, 1295
*Elset, elset=_Battery-rivet-0_S4, internal
  149,  150,  151,  164,  165, 1282, 1283, 1284, 1297, 1298
*Surface, type=ELEMENT, name=Battery-rivet-0
_Battery-rivet-0_S5, S5
_Battery-rivet-0_S4, S4
*Elset, elset=_Battery-rivet-1_S3, internal
   54,   96, 1187, 1229
*Elset, elset=_Battery-rivet-1_S4, internal
   61,  271,  274,  278, 1194, 1404, 1407, 1411
*Elset, elset=_Battery-rivet-1_S6, internal
  104,  105,  208,  233,  241,  243, 1237, 1238, 1341, 1366, 1374, 1376
*Elset, elset=_Battery-rivet-1_S5, internal
  195,  232,  273,  283, 1328, 1365, 1406, 1416
*Surface, type=ELEMENT, name=Battery-rivet-1
_Battery-rivet-1_S3, S3
_Battery-rivet-1_S4, S4
_Battery-rivet-1_S6, S6
_Battery-rivet-1_S5, S5
*Elset, elset=_Battery-rivet-2_S4, internal
   12,   36,   37,   76,  158, 1145, 1169, 1170, 1209, 1291
*Elset, elset=_Battery-rivet-2_S6, internal
   75, 1208
*Elset, elset=_Battery-rivet-2_S3, internal
   77,   80, 1210, 1213
*Surface, type=ELEMENT, name=Battery-rivet-2
_Battery-rivet-2_S4, S4
_Battery-rivet-2_S6, S6
_Battery-rivet-2_S3, S3
*Elset, elset=_Battery-rivet-3_S3, internal
   16,   41,   42,   68,  152,  182, 1149, 1174, 1175, 1201, 1285, 1315
*Elset, elset=_Battery-rivet-3_S6, internal
   28,   38,   50,   55,  157, 1161, 1171, 1183, 1188, 1290
*Elset, elset=_Battery-rivet-3_S5, internal
   48,   72,  163,  175,  176,  178,  179, 1181, 1205, 1296, 1308, 1309, 1311, 1312
*Elset, elset=_Battery-rivet-3_S4, internal
   70,  171,  173,  190, 1203, 1304, 1306, 1323
*Surface, type=ELEMENT, name=Battery-rivet-3
_Battery-rivet-3_S3, S3
_Battery-rivet-3_S6, S6
_Battery-rivet-3_S4, S4
_Battery-rivet-3_S5, S5
*Orientation, name=Ori-1
1., 0., 0., 0., 1., 0.
3, 0.
** Section: BatOrtho
*Solid Section, elset=Batset, orientation=Ori-1, material=BatOrtho
,
*End Part
**  
*Part, name=CF
*Node
      1,         52.5,           0.,           0.
      2,         52.5,         110.,           0.
      3,           0.,         110.,           0.
      4,           0.,           0.,           0.
      5,         57.5,           0.,           0.
      6,         57.5,         110.,           0.
      7,         110.,           0.,           0.
      8,         110.,         110.,           0.
      9,         52.5,   2.97297287,           0.
     10,         52.5,   5.94594574,           0.
     11,         52.5,   8.91891861,           0.
     12,         52.5,   11.8918915,           0.
     13,         52.5,   14.8648653,           0.
     14,         52.5,   17.8378372,           0.
     15,         52.5,   20.8108101,           0.
     16,         52.5,    23.783783,           0.
     17,         52.5,   26.7567558,           0.
     18,         52.5,   29.7297306,           0.
     19,         52.5,   32.7027016,           0.
     20,         52.5,   35.6756744,           0.
** ... 1462 like lines cut
*Element, type=S4R
  1,   1,   9, 223, 114
  2,   9,  10, 224, 223
  3,  10,  11, 225, 224
  4,  11,  12, 226, 225
  5,  12,  13, 227, 226
  6,  13,  14, 228, 227
  7,  14,  15, 229, 228
  8,  15,  16, 230, 229
  9,  16,  17, 231, 230
 10,  17,  18, 232, 231
 11,  18,  19, 233, 232
 12,  19,  20, 234, 233
 13,  20,  21, 235, 234
 14,  21,  22, 236, 235
 15,  22,  23, 237, 236
 16,  23,  24, 238, 237
 17,  24,  25, 239, 238
 18,  25,  26, 240, 239
 19,  26,  27, 241, 240
 20,  27,  28, 242, 241
** ... 1386 like lines cut
*Nset, nset=CF_set, generate
    1,  1482,     1
*Elset, elset=CF_set, generate
    1,  1406,     1
*Elset, elset=_CFtop_SPOS, internal, generate
    1,  1406,     1
*Surface, type=ELEMENT, name=CFtop
_CFtop_SPOS, SPOS
*Elset, elset=_CFbot_SNEG, internal, generate
    1,  1406,     1
*Surface, type=ELEMENT, name=CFbot
_CFbot_SNEG, SNEG
** Section: CF_sec
*Shell Section, elset=CF_set, composite
0.2, 3, CF_material, 0.
0.2, 3, CF_material, 90.
0.2, 3, CF_material, 90.
0.2, 3, CF_material, 0.
*End Part
**  
*Part, name=Polymer
*Node
      1,   29.7767868,          16.,           0.
      2,   29.7767868,          16.,           5.
      3,   77.3280334,   27.9938068,           0.
      4,   77.3280334,   27.9938068,           5.
      5,          10.,         100.,           0.
      6,          10.,          10.,           0.
      7,         100.,          10.,           0.
      8,         100.,         100.,           0.
      9,         110.,           0.,           0.
     10,           0.,           0.,           0.
     11,           0.,         110.,           0.
     12,         110.,         110.,           0.
     13,          10.,          10.,           5.
     14,          10.,         100.,           5.
     15,         100.,         100.,           5.
     16,         100.,          10.,           5.
     17,           0.,         110.,           5.
     18,           0.,           0.,           5.
     19,         110.,           0.,           5.
     20,         110.,         110.,           5.
** ... 2356 like lines cut
*Element, type=C3D8R
1,  662,  661, 1907,  655,   31,   30,  653,    1
2,  658,  657, 1907,  659,   27,   26,  653,   28
3,  660,  659, 1907,  661,   29,   28,  653,   30
4, 1907,  657,  656,  655,  653,   26,   25,    1
5,   32,   33,  654,    2,  662,  661, 1907,  655
6,   36,   37,  654,   35,  658,  657, 1907,  659
7,   34,   35,  654,   33,  660,  659, 1907,  661
8,  654,   37,   38,    2, 1907,  657,  656,  655
 9, 1908,  671,  670,  669,  663,   44,   43,   42
10,  672,  671, 1908,  665,   45,   44,  663,    3
11,  668,  667, 1908,  669,   41,   40,  663,   42
12, 1908,  667,  666,  665,  663,   40,   39,    3
13,  664,   47,   48,   49, 1908,  671,  670,  669
14,   46,   47,  664,    4,  672,  671, 1908,  665
15,   50,   51,  664,   49,  668,  667, 1908,  669
16,  664,   51,   52,    4, 1908,  667,  666,  665
  17, 1007, 1008,   67,   66, 2243, 2244, 1614, 1615
  18,   68, 1009,  697,   69, 1613, 2245, 1933, 1612
  19,  828,  853,  222,  221, 2064, 2089, 1495, 1496
  20,  829,  830,  224,  223, 2065, 2066, 1493, 1494
** ... 1234 like lines cut
*Nset, nset=PolySet
    5,    6,    7,    8,    9,   10,   11,   12,   13,   14,   15,   16,   17,   18,   19,   20
   53,   54,   55,   56,   57,   58,   59,   60,   61,   62,   63,   64,   65,   66,   67,   68
   69,   70,   71,   72,   73,   74,   75,   76,   77,   78,   79,   80,   81,   82,   83,   84
   85,   86,   87,   88,   89,   90,   91,   92,   93,   94,   95,   96,   97,   98,   99,  100
  101,  102,  103,  104,  105,  106,  107,  108,  109,  110,  111,  112,  113,  114,  115,  116
  117,  118,  119,  120,  121,  122,  123,  124,  125,  126,  127,  128,  129,  130,  131,  132
  133,  134,  135,  136,  137,  138,  139,  140,  141,  142,  143,  144,  145,  146,  147,  148
  149,  150,  151,  152,  153,  154,  155,  156,  157,  158,  159,  160,  161,  162,  163,  164
  165,  166,  167,  168,  169,  170,  171,  172,  173,  174,  175,  176,  177,  178,  179,  180
  181,  182,  183,  184,  185,  186,  187,  188,  189,  190,  191,  192,  193,  194,  195,  196
  197,  198,  199,  200,  201,  202,  203,  204,  205,  206,  207,  208,  209,  210,  211,  212
  213,  214,  215,  216,  217,  218,  219,  220,  221,  222,  223,  224,  225,  226,  227,  228
  229,  230,  231,  232,  233,  234,  235,  236,  237,  238,  239,  240,  241,  242,  243,  244
  245,  246,  247,  248,  249,  250,  251,  252,  253,  254,  255,  256,  257,  258,  259,  260
  261,  262,  263,  264,  265,  266,  267,  268,  269,  270,  271,  272,  273,  274,  275,  276
  277,  278,  279,  280,  281,  282,  283,  284,  285,  286,  287,  288,  289,  290,  291,  292
  293,  294,  295,  296,  297,  298,  299,  300,  301,  302,  303,  304,  305,  306,  307,  308
  309,  310,  311,  312,  313,  314,  315,  316,  317,  318,  319,  320,  321,  322,  323,  324
  325,  326,  327,  328,  329,  330,  331,  332,  333,  334,  335,  336,  337,  338,  339,  340
  341,  342,  343,  344,  345,  346,  347,  348,  349,  350,  351,  352,  353,  354,  355,  356
** ... 106 like lines cut
*Elset, elset=PolySet, generate
   17,  1088,     1
*Nset, nset=_PickedSet12, internal
    3,    4,   39,   40,   41,   42,   43,   44,   45,   46,   47,   48,   49,   50,   51,   52
  663,  664,  665,  666,  667,  668,  669,  670,  671,  672, 1908
*Elset, elset=_PickedSet12, internal, generate
  9,  16,   1
*Nset, nset=_PickedSet17, internal
   21,   22,  581,  582,  583,  584,  585,  586,  587,  588,  589,  590,  591,  592,  593,  594
  595,  596,  597,  598,  599,  600,  601,  602,  603,  604,  605,  606,  607,  608,  609,  610
 1737, 1738, 1739, 1740, 1741, 1742, 1743, 1744, 1745, 1746, 1747, 1748, 1749, 1750, 1751, 1752
 1753, 1754, 1755, 1756, 1757, 1758, 1759, 1760, 1761, 1762, 1763, 1764, 1765, 1766, 1767, 1768
 1769, 1770, 1771, 1772, 1773, 1774, 1775, 1776, 1777, 1778, 1779, 1780, 1781, 1782, 1783, 1784
 1785, 1786, 1787, 1788, 1789, 1790, 1791, 1792, 1793, 1794, 1795, 1796, 1797, 1798, 1799, 1800
 2311, 2312, 2313, 2314, 2315, 2316, 2317, 2318, 2319, 2320, 2321, 2322, 2323, 2324, 2325, 2326
 2327, 2328, 2329, 2330, 2331, 2332, 2333, 2334
*Elset, elset=_PickedSet17, internal, generate
 1089,  1150,     1
*Nset, nset=_PickedSet22, internal
    1,    2,   25,   26,   27,   28,   29,   30,   31,   32,   33,   34,   35,   36,   37,   38
  653,  654,  655,  656,  657,  658,  659,  660,  661,  662, 1907
*Elset, elset=_PickedSet22, internal, generate
 1,  8,  1
*Nset, nset=_PickedSet27, internal
   23,   24,  611,  612,  613,  614,  615,  616,  617,  618,  619,  620,  621,  622,  623,  624
  625,  626,  627,  628,  629,  630,  631,  632,  633,  634,  635,  636,  637,  638,  639,  640
  641,  642,  643,  644,  645,  646,  647,  648,  649,  650,  651,  652, 1801, 1802, 1803, 1804
 1805, 1806, 1807, 1808, 1809, 1810, 1811, 1812, 1813, 1814, 1815, 1816, 1817, 1818, 1819, 1820
 1821, 1822, 1823, 1824, 1825, 1826, 1827, 1828, 1829, 1830, 1831, 1832, 1833, 1834, 1835, 1836
 1837, 1838, 1839, 1840, 1841, 1842, 1843, 1844, 1845, 1846, 1847, 1848, 1849, 1850, 1851, 1852
 1853, 1854, 1855, 1856, 1857, 1858, 1859, 1860, 1861, 1862, 1863, 1864, 1865, 1866, 1867, 1868
 1869, 1870, 1871, 1872, 1873, 1874, 1875, 1876, 1877, 1878, 1879, 1880, 1881, 1882, 1883, 1884
 1885, 1886, 1887, 1888, 1889, 1890, 1891, 1892, 1893, 1894, 1895, 1896, 1897, 1898, 1899, 1900
 1901, 1902, 1903, 1904, 1905, 1906, 2335, 2336, 2337, 2338, 2339, 2340, 2341, 2342, 2343, 2344
 2345, 2346, 2347, 2348, 2349, 2350, 2351, 2352, 2353, 2354, 2355, 2356, 2357, 2358, 2359, 2360
 2361, 2362, 2363, 2364, 2365, 2366, 2367, 2368, 2369, 2370, 2371, 2372, 2373, 2374, 2375, 2376
*Elset, elset=_PickedSet27, internal, generate
 1151,  1254,     1
*Elset, elset=_PolyTop_S2, internal, generate
  553,  1088,     1
*Surface, type=ELEMENT, name=PolyTop
_PolyTop_S2, S2
*Elset, elset=_PolyBot_S1, internal, generate
  17,  552,    1
*Surface, type=ELEMENT, name=PolyBot
_PolyBot_S1, S1
*Elset, elset=_Polymer-rivet-0_S4, internal
  9, 12, 13, 16
*Elset, elset=_Polymer-rivet-0_S5, internal
  9, 12, 13, 16
*Elset, elset=_Polymer-rivet-0_S3, internal
 10, 11, 14, 15
*Elset, elset=_Polymer-rivet-0_S6, internal
 10, 11, 14, 15
*Surface, type=ELEMENT, name=Polymer-rivet-0
_Polymer-rivet-0_S4, S4
_Polymer-rivet-0_S5, S5
_Polymer-rivet-0_S6, S6
_Polymer-rivet-0_S3, S3
*Elset, elset=_Polymer-rivet-top-0_S1, internal, generate
 13,  16,   1
*Surface, type=ELEMENT, name=Polymer-rivet-top-0
_Polymer-rivet-top-0_S1, S1
*Elset, elset=_Polymer-rivet-bot-0_S2, internal, generate
  9,  12,   1
*Surface, type=ELEMENT, name=Polymer-rivet-bot-0
_Polymer-rivet-bot-0_S2, S2
*Elset, elset=_Polymer-rivet-1_S3, internal
 1089, 1093, 1096, 1101, 1106, 1113, 1120, 1124, 1127, 1132, 1137, 1144
*Elset, elset=_Polymer-rivet-1_S4, internal
 1090, 1092, 1097, 1102, 1103, 1104, 1116, 1117, 1121, 1123, 1128, 1133, 1134, 1135, 1147, 1148
*Elset, elset=_Polymer-rivet-1_S5, internal
 1108, 1139
*Elset, elset=_Polymer-rivet-1_S6, internal
 1114, 1145
*Surface, type=ELEMENT, name=Polymer-rivet-1
_Polymer-rivet-1_S3, S3
_Polymer-rivet-1_S4, S4
_Polymer-rivet-1_S6, S6
_Polymer-rivet-1_S5, S5
*Elset, elset=_Polymer-rivet-top-1_S1, internal, generate
 1120,  1150,     1
*Surface, type=ELEMENT, name=Polymer-rivet-top-1
_Polymer-rivet-top-1_S1, S1
*Elset, elset=_Polymer-rivet-bot-1_S2, internal, generate
 1089,  1119,     1
*Surface, type=ELEMENT, name=Polymer-rivet-bot-1
_Polymer-rivet-bot-1_S2, S2
*Elset, elset=_Polymer-rivet-2_S3, internal
 1, 2, 3, 5, 6, 7
*Elset, elset=_Polymer-rivet-2_S6, internal
 1, 2, 3, 5, 6, 7
*Elset, elset=_Polymer-rivet-2_S4, internal
 4, 8
*Elset, elset=_Polymer-rivet-2_S5, internal
 4, 8
*Surface, type=ELEMENT, name=Polymer-rivet-2
_Polymer-rivet-2_S3, S3
_Polymer-rivet-2_S6, S6
_Polymer-rivet-2_S4, S4
_Polymer-rivet-2_S5, S5
*Elset, elset=_Polymer-rivet-top-2_S1, internal, generate
 5,  8,  1
*Surface, type=ELEMENT, name=Polymer-rivet-top-2
_Polymer-rivet-top-2_S1, S1
*Elset, elset=_Polymer-rivet-bot-2_S2, internal, generate
 1,  4,  1
*Surface, type=ELEMENT, name=Polymer-rivet-bot-2
_Polymer-rivet-bot-2_S2, S2
*Elset, elset=_Polymer-rivet-3_S4, internal
 1151, 1152, 1155, 1160, 1167, 1169, 1170, 1171, 1172, 1173, 1174, 1175, 1176, 1181, 1199, 1203
 1204, 1207, 1212, 1219, 1221, 1222, 1223, 1224, 1225, 1226, 1227, 1228, 1233, 1251
*Elset, elset=_Polymer-rivet-3_S6, internal
 1153, 1158, 1166, 1177, 1178, 1179, 1205, 1210, 1218, 1229, 1230, 1231
*Elset, elset=_Polymer-rivet-3_S3, internal
 1184, 1236
*Surface, type=ELEMENT, name=Polymer-rivet-3
_Polymer-rivet-3_S4, S4
_Polymer-rivet-3_S6, S6
_Polymer-rivet-3_S3, S3
*Elset, elset=_Polymer-rivet-top-3_S1, internal, generate
 1203,  1254,     1
*Surface, type=ELEMENT, name=Polymer-rivet-top-3
_Polymer-rivet-top-3_S1, S1
*Elset, elset=_Polymer-rivet-bot-3_S2, internal, generate
 1151,  1202,     1
*Surface, type=ELEMENT, name=Polymer-rivet-bot-3
_Polymer-rivet-bot-3_S2, S2
** Section: PolySec
*Solid Section, elset=_PickedSet22, material=Polymer
,
** Section: PolySec
*Solid Section, elset=_PickedSet12, material=Polymer
,
** Section: PolySec
*Solid Section, elset=PolySet, material=Polymer
,
** Section: PolySec
*Solid Section, elset=_PickedSet17, material=Polymer
,
** Section: PolySec
*Solid Section, elset=_PickedSet27, material=Polymer
,
*End Part
**  
**
** ASSEMBLY
**
*Assembly, name=Assembly
**  
*Instance, name=Polymer-1, part=Polymer
*End Instance
**  
*Instance, name=Battery-1, part=Battery
         10.,          10.,           0.
*End Instance
**  
*Instance, name=CF-1, part=CF
          0.,           0.,         -0.4
*End Instance
**  
*Instance, name=CF-2, part=CF
          0.,           0.,          5.4
*End Instance
**  
*Node
      1,          55.,          55.,    5.4000001
*Nset, nset=VerticalSupport, instance=CF-1
   3,   4,   7,   8,  62,  63,  64,  65,  66,  67,  68,  69,  70,  71,  72,  73
  74,  75,  76,  77,  78,  79,  80,  81,  82,  83,  84,  85,  86,  87,  88,  89
  90,  91,  92,  93,  94,  95,  96,  97, 170, 171, 172, 173, 174, 175, 176, 177
 178, 179, 180, 181, 182, 183, 184, 185, 186, 187, 188, 189, 190, 191, 192, 193
 194, 195, 196, 197, 198, 199, 200, 201, 202, 203, 204, 205
*Elset, elset=VerticalSupport, instance=CF-1
  630,  631,  632,  633,  634,  635,  636,  637,  638,  639,  640,  641,  642,  643,  644,  645
  646,  647,  648,  649,  650,  651,  652,  653,  654,  655,  656,  657,  658,  659,  660,  661
  662,  663,  664,  665,  666, 1370, 1371, 1372, 1373, 1374, 1375, 1376, 1377, 1378, 1379, 1380
 1381, 1382, 1383, 1384, 1385, 1386, 1387, 1388, 1389, 1390, 1391, 1392, 1393, 1394, 1395, 1396
 1397, 1398, 1399, 1400, 1401, 1402, 1403, 1404, 1405, 1406
*Nset, nset=XDirSupport, instance=CF-1
 3,
*Nset, nset=YDirSupport, instance=CF-1
 7,
*Nset, nset=rigid_loading_set, instance=CF-2
   1,   2,   5,   6,   9,  10,  11,  12,  13,  14,  15,  16,  17,  18,  19,  20
  21,  22,  23,  24,  25,  26,  27,  28,  29,  30,  31,  32,  33,  34,  35,  36
  37,  38,  39,  40,  41,  42,  43,  44, 115, 116, 117, 118, 119, 120, 121, 122
 123, 124, 125, 126, 127, 128, 129, 130, 131, 132, 133, 134, 135, 136, 137, 138
 139, 140, 141, 142, 143, 144, 145, 146, 147, 148, 149, 150, 151, 152, 835, 836
 837, 838, 839, 840, 841, 842, 843, 844, 845, 846, 847, 848, 849, 850, 851, 852
 853, 854, 855, 856, 857, 858, 859, 860, 861, 862, 863, 864, 865, 866, 867, 868
 869, 870
*Elset, elset=rigid_loading_set, instance=CF-2, generate
 667,  740,    1
*Nset, nset=_PickedSet14, internal
 1,
*Elset, elset=__PickedSurf15_SPOS, internal, instance=CF-2, generate
 667,  740,    1
*Surface, type=ELEMENT, name=_PickedSurf15, internal
__PickedSurf15_SPOS, SPOS
** Constraint: BatPoly-0
*Tie, name=BatPoly-0, adjust=no, position tolerance=1.
Battery-1.Battery-rivet-0, Polymer-1.Polymer-rivet-0
** Constraint: BatPoly-1
*Tie, name=BatPoly-1, adjust=no, position tolerance=1.
Battery-1.Battery-rivet-1, Polymer-1.Polymer-rivet-1
** Constraint: BatPoly-2
*Tie, name=BatPoly-2, adjust=no, position tolerance=1.
Battery-1.Battery-rivet-2, Polymer-1.Polymer-rivet-2
** Constraint: BatPoly-3
*Tie, name=BatPoly-3, adjust=no, position tolerance=1.
Battery-1.Battery-rivet-3, Polymer-1.Polymer-rivet-3
** Constraint: CF1Poly
*Tie, name=CF1Poly, adjust=no, position tolerance=1.
Polymer-1.PolyBot, CF-1.CFtop
** Constraint: CF1Poly-Rivet-0
*Tie, name=CF1Poly-Rivet-0, adjust=no, position tolerance=1.
Polymer-1.Polymer-rivet-bot-0, CF-1.CFtop
** Constraint: CF1Poly-Rivet-1
*Tie, name=CF1Poly-Rivet-1, adjust=no, position tolerance=1.
Polymer-1.Polymer-rivet-bot-1, CF-1.CFtop
** Constraint: CF1Poly-Rivet-2
*Tie, name=CF1Poly-Rivet-2, adjust=no, position tolerance=1.
Polymer-1.Polymer-rivet-bot-2, CF-1.CFtop
** Constraint: CF1Poly-Rivet-3
*Tie, name=CF1Poly-Rivet-3, adjust=no, position tolerance=1.
Polymer-1.Polymer-rivet-bot-3, CF-1.CFtop
** Constraint: CF2Poly
*Tie, name=CF2Poly, adjust=no, position tolerance=1.
Polymer-1.PolyTop, CF-2.CFbot
** Constraint: CF2Poly-Rivet-0
*Tie, name=CF2Poly-Rivet-0, adjust=no, position tolerance=1.
Polymer-1.Polymer-rivet-top-0, CF-2.CFbot
** Constraint: CF2Poly-Rivet-1
*Tie, name=CF2Poly-Rivet-1, adjust=no, position tolerance=1.
Polymer-1.Polymer-rivet-top-1, CF-2.CFbot
** Constraint: CF2Poly-Rivet-2
*Tie, name=CF2Poly-Rivet-2, adjust=no, position tolerance=1.
Polymer-1.Polymer-rivet-top-2, CF-2.CFbot
** Constraint: CF2Poly-Rivet-3
*Tie, name=CF2Poly-Rivet-3, adjust=no, position tolerance=1.
Polymer-1.Polymer-rivet-top-3, CF-2.CFbot
** Constraint: LoadingRigidBody
*Rigid Body, ref node=_PickedSet14, tie nset=rigid_loading_set
*End Assembly
** 
** MATERIALS
** 
*Material, name=BatOrtho
*Elastic, type=ENGINEERING CONSTANTS
1090., 109., 500., 0.15, 0.15, 0.15, 474., 474.
 474.,
*Material, name=CF_material
*Elastic, type=ENGINEERING CONSTANTS
30420.,  4023.,  4023.,   0.29,   0.29, 0.3928,  2081.,  2081.
  1440.,
*Material, name=Polymer
*Elastic
500., 0.3
** 
** INTERACTION PROPERTIES
** 
*Surface Interaction, name=NormCont
1.,
*Friction, slip tolerance=0.005
 0.3,
*Surface Behavior, pressure-overclosure=HARD
** 
** INTERACTIONS
** 
** Interaction: CF1Bat
*Contact Pair, interaction=NormCont, type=SURFACE TO SURFACE
Battery-1.BatBot, CF-1.CFtop
** Interaction: CF2Bat
*Contact Pair, interaction=NormCont, type=SURFACE TO SURFACE
Battery-1.BatTop, CF-2.CFbot
** ----------------------------------------------------------------
** 
** STEP: Loading
** 
*Step, name=Loading, nlgeom=NO
*Static
1., 1., 1e-05, 1.
** 
** BOUNDARY CONDITIONS
** 
** Name: VerticalSupport Type: Displacement/Rotation
*Boundary
VerticalSupport, 3, 3
** Name: XDirSupport Type: Displacement/Rotation
*Boundary
XDirSupport, 1, 1
** Name: YDirSupport Type: Displacement/Rotation
*Boundary
YDirSupport, 2, 2
** 
** LOADS
** 
** Name: Load-1   Type: Pressure
*Dsload
_PickedSurf15, P, 0.181818
** 
** OUTPUT REQUESTS
** 
*Restart, write, frequency=0
** 
** FIELD OUTPUT: F-Output-1
** 
*Output, field
*Node Output
U, UR, UT
*Element Output, directions=YES
EVOL, 
** 
** HISTORY OUTPUT: H-Output-1
** 
*Output, history, variable=PRESELECT
*End Step
