*Heading
** Job name: Job-6 Model name: Model-1
** Generated by: Abaqus/CAE 2019
*Preprint, echo=NO, model=NO, history=NO, contact=NO
**
** PARTS
**
*Part, name=Battery
*Node
      1,   16.8178654,   84.2419891,           0.
      2,   14.7988596,    86.260994,           0.
      3,   12.0408459,          87.,           0.
      4,   9.28283215,    86.260994,           0.
      5,   7.26382637,   84.2419891,           0.
      6,    6.5248189,   81.4839706,           0.
      7,   7.26382637,   78.7259598,           0.
      8,   9.28283215,    76.706955,           0.
      9,   12.0408459,   75.9679489,           0.
     10,   14.7988596,    76.706955,           0.
     11,   16.8178654,   78.7259598,           0.
     12,   17.5568733,   81.4839706,           0.
     13,   41.6194801,   59.8167839,           0.
     14,   38.0791092,   64.0360336,           0.
     15,    35.451355,   64.9924545,           0.
     16,   30.0271969,   64.0360336,           0.
     17,   27.8850288,   62.2385368,           0.
     18,   26.4868298,   59.8167839,           0.
     19,   26.4868298,   54.3089523,           0.
     20,   27.8850288,   51.8871956,           0.
** ... 3286 like lines cut
*Element, type=C3D8R
   1,  225, 1017,  274, 1020, 1327, 2119, 1376, 2122
   2,  131,  130,  225,    4, 1233, 1232, 1327, 1106
   3,  207,  226,  332, 1024, 1309, 1328, 1434, 2126
   4,  386, 1048,  272,  271, 1488, 2150, 1374, 1373
   5,  117,   44,  217,  118, 1219, 1146, 1319, 1220
   6,  118,  217,  215,  119, 1220, 1319, 1317, 1221
   7,  217,   44,   67,  215, 1319, 1146, 1169, 1317
   8,  215, 1016,  408,  227, 1317, 2118, 1510, 1329
   9,    9,    8,  482,  208, 1111, 1110, 1584, 1310
  10,   10,    9,  211, 1025, 1112, 1111, 1313, 2127
  11,   41,   40,  213,  220, 1143, 1142, 1315, 1322
  12,   59,   18,  189,  198, 1161, 1120, 1291, 1300
  13,  201,   19,   59,  198, 1303, 1121, 1161, 1300
  14,   39,   52,  201,  198, 1141, 1154, 1303, 1300
  15,  550,  196,   52,   51, 1652, 1298, 1154, 1153
  16, 1022,  194,   21,   20, 2124, 1296, 1123, 1122
  17,   22,   60, 1027,  192, 1124, 1162, 2129, 1294
  18,  241,  166,  165,  291, 1343, 1268, 1267, 1393
  19,  249,   84,   83,  248, 1351, 1186, 1185, 1350
  20,  250,   85,   84,  249, 1352, 1187, 1186, 1351
** ... 2004 like lines cut
*Nset, nset=Batset, generate
    1,  3306,     1
*Elset, elset=Batset, generate
    1,  2024,     1
*Elset, elset=_BatTop_S2, internal, generate
 1013,  2024,     1
*Surface, type=ELEMENT, name=BatTop
_BatTop_S2, S2
*Elset, elset=_BatBot_S1, internal, generate
    1,  1012,     1
*Surface, type=ELEMENT, name=BatBot
_BatBot_S1, S1
*Elset, elset=_Battery-rivet-0_S4, internal
    7,   96,  106,  177,  197,  200,  305, 1019, 1108, 1118, 1189, 1209, 1212, 1317
*Elset, elset=_Battery-rivet-0_S3, internal
   11,   14, 1023, 1026
*Elset, elset=_Battery-rivet-0_S5, internal
   15,   64,   85,  102,  198,  203, 1027, 1076, 1097, 1114, 1210, 1215
*Elset, elset=_Battery-rivet-0_S6, internal
   26,  105,  107,  109,  193, 1038, 1117, 1119, 1121, 1205
*Surface, type=ELEMENT, name=Battery-rivet-0
_Battery-rivet-0_S4, S4
_Battery-rivet-0_S3, S3
_Battery-rivet-0_S6, S6
_Battery-rivet-0_S5, S5
*Elset, elset=_Battery-rivet-1_S3, internal
   30,  226,  259,  262, 1042, 1238, 1271, 1274
*Elset, elset=_Battery-rivet-1_S5, internal
   36,  261,  298, 1048, 1273, 1310
*Elset, elset=_Battery-rivet-1_S6, internal
   52,  167,  173, 1064, 1179, 1185
*Elset, elset=_Battery-rivet-1_S4, internal
  126,  172,  176,  295,  299,  300, 1138, 1184, 1188, 1307, 1311, 1312
*Surface, type=ELEMENT, name=Battery-rivet-1
_Battery-rivet-1_S3, S3
_Battery-rivet-1_S5, S5
_Battery-rivet-1_S6, S6
_Battery-rivet-1_S4, S4
*Elset, elset=_Battery-rivet-2_S3, internal
   12,   17,   32, 1024, 1029, 1044
*Elset, elset=_Battery-rivet-2_S4, internal
   13,   37,  163,  171,  175,  178, 1025, 1049, 1175, 1183, 1187, 1190
*Elset, elset=_Battery-rivet-2_S5, internal
   16,   34,   35,   48,   49,  162,  164, 1028, 1046, 1047, 1060, 1061, 1174, 1176
*Elset, elset=_Battery-rivet-2_S6, internal
   79,  143, 1091, 1155
*Surface, type=ELEMENT, name=Battery-rivet-2
_Battery-rivet-2_S3, S3
_Battery-rivet-2_S4, S4
_Battery-rivet-2_S6, S6
_Battery-rivet-2_S5, S5
*Elset, elset=_Battery-rivet-3_S3, internal
    9,   10,  181, 1021, 1022, 1193
*Elset, elset=_Battery-rivet-3_S5, internal
   27,  189, 1039, 1201
*Elset, elset=_Battery-rivet-3_S4, internal
   28,  113,  192, 1040, 1125, 1204
*Elset, elset=_Battery-rivet-3_S6, internal
   47,  115,  118,  187, 1059, 1127, 1130, 1199
*Surface, type=ELEMENT, name=Battery-rivet-3
_Battery-rivet-3_S3, S3
_Battery-rivet-3_S5, S5
_Battery-rivet-3_S4, S4
_Battery-rivet-3_S6, S6
*Orientation, name=Ori-1
1., 0., 0., 0., 1., 0.
3, 0.
** Section: BatOrtho
*Solid Section, elset=Batset, orientation=Ori-1, material=BatOrtho
,
*End Part
**  
*Part, name=CF
*Node
      1,         52.5,           0.,           0.
      2,         52.5,         110.,           0.
      3,           0.,         110.,           0.
      4,           0.,           0.,           0.
      5,         57.5,           0.,           0.
      6,         57.5,         110.,           0.
      7,         110.,           0.,           0.
      8,         110.,         110.,           0.
      9,         52.5,   2.97297287,           0.
     10,         52.5,   5.94594574,           0.
     11,         52.5,   8.91891861,           0.
     12,         52.5,   11.8918915,           0.
     13,         52.5,   14.8648653,           0.
     14,         52.5,   17.8378372,           0.
     15,         52.5,   20.8108101,           0.
     16,         52.5,    23.783783,           0.
     17,         52.5,   26.7567558,           0.
     18,         52.5,   29.7297306,           0.
     19,         52.5,   32.7027016,           0.
     20,         52.5,   35.6756744,           0.
** ... 1462 like lines cut
*Element, type=S4R
  1,   1,   9, 223, 114
  2,   9,  10, 224, 223
  3,  10,  11, 225, 224
  4,  11,  12, 226, 225
  5,  12,  13, 227, 226
  6,  13,  14, 228, 227
  7,  14,  15, 229, 228
  8,  15,  16, 230, 229
  9,  16,  17, 231, 230
 10,  17,  18, 232, 231
 11,  18,  19, 233, 232
 12,  19,  20, 234, 233
 13,  20,  21, 235, 234
 14,  21,  22, 236, 235
 15,  22,  23, 237, 236
 16,  23,  24, 238, 237
 17,  24,  25, 239, 238
 18,  25,  26, 240, 239
 19,  26,  27, 241, 240
 20,  27,  28, 242, 241
** ... 1386 like lines cut
*Nset, nset=CF_set, generate
    1,  1482,     1
*Elset, elset=CF_set, generate
    1,  1406,     1
*Elset, elset=_CFtop_SPOS, internal, generate
    1,  1406,     1
*Surface, type=ELEMENT, name=CFtop
_CFtop_SPOS, SPOS
*Elset, elset=_CFbot_SNEG, internal, generate
    1,  1406,     1
*Surface, type=ELEMENT, name=CFbot
_CFbot_SNEG, SNEG
** Section: CF_sec
*Shell Section, elset=CF_set, composite
0.2, 3, CF_material, 0.
0.2, 3, CF_material, 90.
0.2, 3, CF_material, 90.
0.2, 3, CF_material, 0.
*End Part
**  
*Part, name=Polymer
*Node
      1,   52.1050682,   67.0628662,           0.
      2,   52.1050682,   67.0628662,           5.
      3,    31.608181,   63.6496544,           0.
      4,    31.608181,   63.6496544,           5.
      5,          10.,         100.,           0.
      6,          10.,          10.,           0.
      7,         100.,          10.,           0.
      8,         100.,         100.,           0.
      9,         110.,           0.,           0.
     10,           0.,           0.,           0.
     11,           0.,         110.,           0.
     12,         110.,         110.,           0.
     13,          10.,          10.,           5.
     14,          10.,         100.,           5.
     15,         100.,         100.,           5.
     16,         100.,          10.,           5.
     17,           0.,         110.,           5.
     18,           0.,           0.,           5.
     19,         110.,           0.,           5.
     20,         110.,         110.,           5.
** ... 2524 like lines cut
*Element, type=C3D8R
 1, 2059,  757,  756, 2032,  705,   40,   39,  678
 2, 2040,  755,  754, 2056,  686,   38,   37,  702
 3, 2033, 2043, 2061, 2056,  679,  689,  707,  702
 4,  758, 2031, 2037,  741,   41,  677,  683,    1
 5, 2044, 2035, 2045, 2062,  690,  681,  691,  708
 6, 2050, 2038,  744,  743,  696,  684,   27,   26
 7, 2049, 2044, 2062, 2048,  695,  690,  708,  694
 8, 2042, 2038, 2045, 2035,  688,  684,  691,  681
 9,  743,  742, 2036, 2050,   26,   25,  682,  696
10, 2037, 2036,  742,  741,  683,  682,   25,    1
11, 2047, 2036, 2037, 2046,  693,  682,  683,  692
12, 2055, 2044, 2049, 2034,  701,  690,  695,  680
13, 2057, 2034, 2049, 2060,  703,  680,  695,  706
14, 2032, 2040, 2046, 2059,  678,  686,  692,  705
15,  756,  755, 2040, 2032,   39,   38,  686,  678
16, 2052, 2053,  748,  747,  698,  699,   31,   30
17, 2031,  758,  757, 2059,  677,   41,   40,  705
18, 2033,  753,  752, 2057,  679,   36,   35,  703
19, 2057,  752,  751, 2034,  703,   35,   34,  680
20, 2034,  751,  750, 2055,  680,   34,   33,  701
** ... 1334 like lines cut
*Nset, nset=PolySet
    5,    6,    7,    8,    9,   10,   11,   12,   13,   14,   15,   16,   17,   18,   19,   20
   97,   98,   99,  100,  101,  102,  103,  104,  105,  106,  107,  108,  109,  110,  111,  112
  113,  114,  115,  116,  117,  118,  119,  120,  121,  122,  123,  124,  125,  126,  127,  128
  129,  130,  131,  132,  133,  134,  135,  136,  137,  138,  139,  140,  141,  142,  143,  144
  145,  146,  147,  148,  149,  150,  151,  152,  153,  154,  155,  156,  157,  158,  159,  160
  161,  162,  163,  164,  165,  166,  167,  168,  169,  170,  171,  172,  173,  174,  175,  176
  177,  178,  179,  180,  181,  182,  183,  184,  185,  186,  187,  188,  189,  190,  191,  192
  193,  194,  195,  196,  197,  198,  199,  200,  201,  202,  203,  204,  205,  206,  207,  208
  209,  210,  211,  212,  213,  214,  215,  216,  217,  218,  219,  220,  221,  222,  223,  224
  225,  226,  227,  228,  229,  230,  231,  232,  233,  234,  235,  236,  237,  238,  239,  240
  241,  242,  243,  244,  245,  246,  247,  248,  249,  250,  251,  252,  253,  254,  255,  256
  257,  258,  259,  260,  261,  262,  263,  264,  265,  266,  267,  268,  269,  270,  271,  272
  273,  274,  275,  276,  277,  278,  279,  280,  281,  282,  283,  284,  285,  286,  287,  288
  289,  290,  291,  292,  293,  294,  295,  296,  297,  298,  299,  300,  301,  302,  303,  304
  305,  306,  307,  308,  309,  310,  311,  312,  313,  314,  315,  316,  317,  318,  319,  320
  321,  322,  323,  324,  325,  326,  327,  328,  329,  330,  331,  332,  333,  334,  335,  336
  337,  338,  339,  340,  341,  342,  343,  344,  345,  346,  347,  348,  349,  350,  351,  352
  353,  354,  355,  356,  357,  358,  359,  360,  361,  362,  363,  364,  365,  366,  367,  368
  369,  370,  371,  372,  373,  374,  375,  376,  377,  378,  379,  380,  381,  382,  383,  384
  385,  386,  387,  388,  389,  390,  391,  392,  393,  394,  395,  396,  397,  398,  399,  400
** ... 106 like lines cut
*Elset, elset=PolySet, generate
  169,  1240,     1
*Nset, nset=_PickedSet12, internal
    3,    4,   59,   60,   61,   62,   63,   64,   65,   66,   67,   68,   69,   70,   71,   72
   73,   74,   75,   76,   77,   78,   79,   80,   81,   82,   83,   84,   85,   86,   87,   88
   89,   90,   91,   92,   93,   94,   95,   96,  759,  760,  761,  762,  763,  764,  765,  766
  767,  768,  769,  770,  771,  772,  773,  774,  775,  776,  777,  778,  779,  780,  781,  782
  783,  784,  785,  786,  787,  788,  789,  790,  791,  792,  793,  794,  795,  796,  797,  798
  799,  800,  801,  802,  803,  804,  805,  806,  807,  808,  809,  810,  811,  812,  813,  814
  815,  816,  817,  818,  819,  820,  821,  822,  823,  824,  825,  826,  827,  828,  829,  830
  831,  832,  833,  834,  835,  836,  837,  838,  839,  840,  841,  842,  843,  844,  845,  846
  847,  848, 2063, 2064, 2065, 2066, 2067, 2068, 2069, 2070, 2071, 2072, 2073, 2074, 2075, 2076
 2077, 2078, 2079, 2080, 2081, 2082, 2083, 2084, 2085, 2086, 2087, 2088, 2089, 2090, 2091, 2092
 2093, 2094, 2095, 2096, 2097
*Elset, elset=_PickedSet12, internal, generate
  81,  168,    1
*Nset, nset=_PickedSet17, internal
   21,   22,  625,  626,  627,  628,  629,  630,  631,  632,  633,  634,  635,  636,  637,  638
  639,  640,  641,  642,  643,  644,  645,  646,  647,  648,  649,  650,  651,  652,  653,  654
 1913, 1914, 1915, 1916, 1917, 1918, 1919, 1920, 1921, 1922, 1923, 1924, 1925, 1926, 1927, 1928
 1929, 1930, 1931, 1932, 1933, 1934, 1935, 1936, 1937, 1938, 1939, 1940, 1941, 1942, 1943, 1944
 1945, 1946, 1947, 1948, 1949, 1950, 1951, 1952, 1953, 1954, 1955, 1956, 1957, 1958, 1959, 1960
 1961, 1962, 1963, 1964, 1965, 1966, 1967, 1968, 1969, 1970, 1971, 1972, 1973, 1974, 1975, 1976
 2500, 2501, 2502, 2503, 2504, 2505, 2506, 2507, 2508, 2509, 2510, 2511, 2512, 2513, 2514, 2515
 2516, 2517, 2518, 2519, 2520, 2521, 2522, 2523
*Elset, elset=_PickedSet17, internal, generate
 1241,  1302,     1
*Nset, nset=_PickedSet22, internal
    1,    2,   25,   26,   27,   28,   29,   30,   31,   32,   33,   34,   35,   36,   37,   38
   39,   40,   41,   42,   43,   44,   45,   46,   47,   48,   49,   50,   51,   52,   53,   54
   55,   56,   57,   58,  677,  678,  679,  680,  681,  682,  683,  684,  685,  686,  687,  688
  689,  690,  691,  692,  693,  694,  695,  696,  697,  698,  699,  700,  701,  702,  703,  704
  705,  706,  707,  708,  709,  710,  711,  712,  713,  714,  715,  716,  717,  718,  719,  720
  721,  722,  723,  724,  725,  726,  727,  728,  729,  730,  731,  732,  733,  734,  735,  736
  737,  738,  739,  740,  741,  742,  743,  744,  745,  746,  747,  748,  749,  750,  751,  752
  753,  754,  755,  756,  757,  758, 2031, 2032, 2033, 2034, 2035, 2036, 2037, 2038, 2039, 2040
 2041, 2042, 2043, 2044, 2045, 2046, 2047, 2048, 2049, 2050, 2051, 2052, 2053, 2054, 2055, 2056
 2057, 2058, 2059, 2060, 2061, 2062
*Elset, elset=_PickedSet22, internal, generate
  1,  80,   1
*Nset, nset=_PickedSet27, internal
   23,   24,  655,  656,  657,  658,  659,  660,  661,  662,  663,  664,  665,  666,  667,  668
  669,  670,  671,  672,  673,  674,  675,  676, 1977, 1978, 1979, 1980, 1981, 1982, 1983, 1984
 1985, 1986, 1987, 1988, 1989, 1990, 1991, 1992, 1993, 1994, 1995, 1996, 1997, 1998, 1999, 2000
 2001, 2002, 2003, 2004, 2005, 2006, 2007, 2008, 2009, 2010, 2011, 2012, 2013, 2014, 2015, 2016
 2017, 2018, 2019, 2020, 2021, 2022, 2023, 2024, 2025, 2026, 2027, 2028, 2029, 2030, 2524, 2525
 2526, 2527, 2528, 2529, 2530, 2531, 2532, 2533, 2534, 2535, 2536, 2537, 2538, 2539, 2540, 2541
 2542, 2543, 2544
*Elset, elset=_PickedSet27, internal, generate
 1303,  1354,     1
*Elset, elset=_PolyTop_S2, internal, generate
  705,  1240,     1
*Surface, type=ELEMENT, name=PolyTop
_PolyTop_S2, S2
*Elset, elset=_PolyBot_S1, internal, generate
 169,  704,    1
*Surface, type=ELEMENT, name=PolyBot
_PolyBot_S1, S1
*Elset, elset=_Polymer-rivet-0_S3, internal
  81,  94, 123, 125, 138, 167
*Elset, elset=_Polymer-rivet-0_S6, internal
  82,  88,  96, 100, 103, 104, 126, 132, 140, 144, 147, 148
*Elset, elset=_Polymer-rivet-0_S5, internal
  91,  95, 101, 102, 110, 135, 139, 145, 146, 154
*Elset, elset=_Polymer-rivet-0_S4, internal
  97,  98,  99, 105, 106, 121, 141, 142, 143, 149, 150, 165
*Surface, type=ELEMENT, name=Polymer-rivet-0
_Polymer-rivet-0_S3, S3
_Polymer-rivet-0_S6, S6
_Polymer-rivet-0_S4, S4
_Polymer-rivet-0_S5, S5
*Elset, elset=_Polymer-rivet-top-0_S1, internal, generate
 125,  168,    1
*Surface, type=ELEMENT, name=Polymer-rivet-top-0
_Polymer-rivet-top-0_S1, S1
*Elset, elset=_Polymer-rivet-bot-0_S2, internal, generate
  81,  124,    1
*Surface, type=ELEMENT, name=Polymer-rivet-bot-0
_Polymer-rivet-bot-0_S2, S2
*Elset, elset=_Polymer-rivet-1_S3, internal
 1241, 1245, 1248, 1259, 1269, 1272, 1276, 1279, 1290, 1300
*Elset, elset=_Polymer-rivet-1_S5, internal
 1242, 1261, 1273, 1292
*Elset, elset=_Polymer-rivet-1_S4, internal
 1244, 1249, 1253, 1254, 1255, 1256, 1271, 1275, 1280, 1284, 1285, 1286, 1287, 1302
*Elset, elset=_Polymer-rivet-1_S6, internal
 1257, 1258, 1288, 1289
*Surface, type=ELEMENT, name=Polymer-rivet-1
_Polymer-rivet-1_S3, S3
_Polymer-rivet-1_S5, S5
_Polymer-rivet-1_S4, S4
_Polymer-rivet-1_S6, S6
*Elset, elset=_Polymer-rivet-top-1_S1, internal, generate
 1272,  1302,     1
*Surface, type=ELEMENT, name=Polymer-rivet-top-1
_Polymer-rivet-top-1_S1, S1
*Elset, elset=_Polymer-rivet-bot-1_S2, internal, generate
 1241,  1271,     1
*Surface, type=ELEMENT, name=Polymer-rivet-bot-1
_Polymer-rivet-bot-1_S2, S2
*Elset, elset=_Polymer-rivet-2_S4, internal
  1,  2, 17, 18, 19, 20, 28, 41, 42, 57, 58, 59, 60, 68
*Elset, elset=_Polymer-rivet-2_S6, internal
  4, 29, 38, 44, 69, 78
*Elset, elset=_Polymer-rivet-2_S5, internal
  6, 10, 16, 23, 24, 46, 50, 56, 63, 64
*Elset, elset=_Polymer-rivet-2_S3, internal
  9, 15, 37, 49, 55, 77
*Surface, type=ELEMENT, name=Polymer-rivet-2
_Polymer-rivet-2_S4, S4
_Polymer-rivet-2_S6, S6
_Polymer-rivet-2_S5, S5
_Polymer-rivet-2_S3, S3
*Elset, elset=_Polymer-rivet-top-2_S1, internal, generate
 41,  80,   1
*Surface, type=ELEMENT, name=Polymer-rivet-top-2
_Polymer-rivet-top-2_S1, S1
*Elset, elset=_Polymer-rivet-bot-2_S2, internal, generate
  1,  40,   1
*Surface, type=ELEMENT, name=Polymer-rivet-bot-2
_Polymer-rivet-bot-2_S2, S2
*Elset, elset=_Polymer-rivet-3_S3, internal
 1304, 1315, 1321, 1322, 1330, 1341, 1347, 1348
*Elset, elset=_Polymer-rivet-3_S6, internal
 1306, 1316, 1323, 1325, 1326, 1332, 1342, 1349, 1351, 1352
*Elset, elset=_Polymer-rivet-3_S5, internal
 1310, 1317, 1319, 1336, 1343, 1345
*Surface, type=ELEMENT, name=Polymer-rivet-3
_Polymer-rivet-3_S3, S3
_Polymer-rivet-3_S6, S6
_Polymer-rivet-3_S5, S5
*Elset, elset=_Polymer-rivet-top-3_S1, internal, generate
 1329,  1354,     1
*Surface, type=ELEMENT, name=Polymer-rivet-top-3
_Polymer-rivet-top-3_S1, S1
*Elset, elset=_Polymer-rivet-bot-3_S2, internal, generate
 1303,  1328,     1
*Surface, type=ELEMENT, name=Polymer-rivet-bot-3
_Polymer-rivet-bot-3_S2, S2
** Section: PolySec
*Solid Section, elset=_PickedSet22, material=Polymer
,
** Section: PolySec
*Solid Section, elset=_PickedSet12, material=Polymer
,
** Section: PolySec
*Solid Section, elset=PolySet, material=Polymer
,
** Section: PolySec
*Solid Section, elset=_PickedSet17, material=Polymer
,
** Section: PolySec
*Solid Section, elset=_PickedSet27, material=Polymer
,
*End Part
**  
**
** ASSEMBLY
**
*Assembly, name=Assembly
**  
*Instance, name=Polymer-1, part=Polymer
*End Instance
**  
*Instance, name=Battery-1, part=Battery
         10.,          10.,           0.
*End Instance
**  
*Instance, name=CF-1, part=CF
          0.,           0.,         -0.4
*End Instance
**  
*Instance, name=CF-2, part=CF
          0.,           0.,          5.4
*End Instance
**  
*Node
      1,          55.,          55.,    5.4000001
*Nset, nset=VerticalSupport, instance=CF-1
   3,   4,   7,   8,  62,  63,  64,  65,  66,  67,  68,  69,  70,  71,  72,  73
  74,  75,  76,  77,  78,  79,  80,  81,  82,  83,  84,  85,  86,  87,  88,  89
  90,  91,  92,  93,  94,  95,  96,  97, 170, 171, 172, 173, 174, 175, 176, 177
 178, 179, 180, 181, 182, 183, 184, 185, 186, 187, 188, 189, 190, 191, 192, 193
 194, 195, 196, 197, 198, 199, 200, 201, 202, 203, 204, 205
*Elset, elset=VerticalSupport, instance=CF-1
  630,  631,  632,  633,  634,  635,  636,  637,  638,  639,  640,  641,  642,  643,  644,  645
  646,  647,  648,  649,  650,  651,  652,  653,  654,  655,  656,  657,  658,  659,  660,  661
  662,  663,  664,  665,  666, 1370, 1371, 1372, 1373, 1374, 1375, 1376, 1377, 1378, 1379, 1380
 1381, 1382, 1383, 1384, 1385, 1386, 1387, 1388, 1389, 1390, 1391, 1392, 1393, 1394, 1395, 1396
 1397, 1398, 1399, 1400, 1401, 1402, 1403, 1404, 1405, 1406
*Nset, nset=XDirSupport, instance=CF-1
 3,
*Nset, nset=YDirSupport, instance=CF-1
 7,
*Nset, nset=rigid_loading_set, instance=CF-2
   1,   2,   5,   6,   9,  10,  11,  12,  13,  14,  15,  16,  17,  18,  19,  20
  21,  22,  23,  24,  25,  26,  27,  28,  29,  30,  31,  32,  33,  34,  35,  36
  37,  38,  39,  40,  41,  42,  43,  44, 115, 116, 117, 118, 119, 120, 121, 122
 123, 124, 125, 126, 127, 128, 129, 130, 131, 132, 133, 134, 135, 136, 137, 138
 139, 140, 141, 142, 143, 144, 145, 146, 147, 148, 149, 150, 151, 152, 835, 836
 837, 838, 839, 840, 841, 842, 843, 844, 845, 846, 847, 848, 849, 850, 851, 852
 853, 854, 855, 856, 857, 858, 859, 860, 861, 862, 863, 864, 865, 866, 867, 868
 869, 870
*Elset, elset=rigid_loading_set, instance=CF-2, generate
 667,  740,    1
*Nset, nset=_PickedSet14, internal
 1,
*Elset, elset=__PickedSurf15_SPOS, internal, instance=CF-2, generate
 667,  740,    1
*Surface, type=ELEMENT, name=_PickedSurf15, internal
__PickedSurf15_SPOS, SPOS
** Constraint: BatPoly-0
*Tie, name=BatPoly-0, adjust=no, position tolerance=1.
Battery-1.Battery-rivet-0, Polymer-1.Polymer-rivet-0
** Constraint: BatPoly-1
*Tie, name=BatPoly-1, adjust=no, position tolerance=1.
Battery-1.Battery-rivet-1, Polymer-1.Polymer-rivet-1
** Constraint: BatPoly-2
*Tie, name=BatPoly-2, adjust=no, position tolerance=1.
Battery-1.Battery-rivet-2, Polymer-1.Polymer-rivet-2
** Constraint: BatPoly-3
*Tie, name=BatPoly-3, adjust=no, position tolerance=1.
Battery-1.Battery-rivet-3, Polymer-1.Polymer-rivet-3
** Constraint: CF1Poly
*Tie, name=CF1Poly, adjust=no, position tolerance=1.
Polymer-1.PolyBot, CF-1.CFtop
** Constraint: CF1Poly-Rivet-0
*Tie, name=CF1Poly-Rivet-0, adjust=no, position tolerance=1.
Polymer-1.Polymer-rivet-bot-0, CF-1.CFtop
** Constraint: CF1Poly-Rivet-1
*Tie, name=CF1Poly-Rivet-1, adjust=no, position tolerance=1.
Polymer-1.Polymer-rivet-bot-1, CF-1.CFtop
** Constraint: CF1Poly-Rivet-2
*Tie, name=CF1Poly-Rivet-2, adjust=no, position tolerance=1.
Polymer-1.Polymer-rivet-bot-2, CF-1.CFtop
** Constraint: CF1Poly-Rivet-3
*Tie, name=CF1Poly-Rivet-3, adjust=no, position tolerance=1.
Polymer-1.Polymer-rivet-bot-3, CF-1.CFtop
** Constraint: CF2Poly
*Tie, name=CF2Poly, adjust=no, position tolerance=1.
Polymer-1.PolyTop, CF-2.CFbot
** Constraint: CF2Poly-Rivet-0
*Tie, name=CF2Poly-Rivet-0, adjust=no, position tolerance=1.
Polymer-1.Polymer-rivet-top-0, CF-2.CFbot
** Constraint: CF2Poly-Rivet-1
*Tie, name=CF2Poly-Rivet-1, adjust=no, position tolerance=1.
Polymer-1.Polymer-rivet-top-1, CF-2.CFbot
** Constraint: CF2Poly-Rivet-2
*Tie, name=CF2Poly-Rivet-2, adjust=no, position tolerance=1.
Polymer-1.Polymer-rivet-top-2, CF-2.CFbot
** Constraint: CF2Poly-Rivet-3
*Tie, name=CF2Poly-Rivet-3, adjust=no, position tolerance=1.
Polymer-1.Polymer-rivet-top-3, CF-2.CFbot
** Constraint: LoadingRigidBody
*Rigid Body, ref node=_PickedSet14, tie nset=rigid_loading_set
*End Assembly
** 
** MATERIALS
** 
*Material, name=BatOrtho
*Elastic, type=ENGINEERING CONSTANTS
1090., 109., 500., 0.15, 0.15, 0.15, 474., 474.
 474.,
*Material, name=CF_material
*Elastic, type=ENGINEERING CONSTANTS
30420.,  4023.,  4023.,   0.29,   0.29, 0.3928,  2081.,  2081.
  1440.,
*Material, name=Polymer
*Elastic
500., 0.3
** 
** INTERACTION PROPERTIES
** 
*Surface Interaction, name=NormCont
1.,
*Friction, slip tolerance=0.005
 0.3,
*Surface Behavior, pressure-overclosure=HARD
** 
** INTERACTIONS
** 
** Interaction: CF1Bat
*Contact Pair, interaction=NormCont, type=SURFACE TO SURFACE
Battery-1.BatBot, CF-1.CFtop
** Interaction: CF2Bat
*Contact Pair, interaction=NormCont, type=SURFACE TO SURFACE
Battery-1.BatTop, CF-2.CFbot
** ----------------------------------------------------------------
** 
** STEP: Loading
** 
*Step, name=Loading, nlgeom=NO
*Static
1., 1., 1e-05, 1.
** 
** BOUNDARY CONDITIONS
** 
** Name: VerticalSupport Type: Displacement/Rotation
*Boundary
VerticalSupport, 3, 3
** Name: XDirSupport Type: Displacement/Rotation
*Boundary
XDirSupport, 1, 1
** Name: YDirSupport Type: Displacement/Rotation
*Boundary
YDirSupport, 2, 2
** 
** LOADS
** 
** Name: Load-1   Type: Pressure
*Dsload
_PickedSurf15, P, 0.181818
** 
** OUTPUT REQUESTS
** 
*Restart, write, frequency=0
** 
** FIELD OUTPUT: F-Output-1
** 
*Output, field
*Node Output
U, UR, UT
*Element Output, directions=YES
EVOL, 
** 
** HISTORY OUTPUT: H-Output-1
** 
*Output, history, variable=PRESELECT
*End Step
