*Heading
** Job name: Job-20 Model name: Model-1
** Generated by: Abaqus/CAE 2019
*Preprint, echo=NO, model=NO, history=NO, contact=NO
**
** PARTS
**
*Part, name=Battery
*Node
      1,   41.1489449,   31.5540581,           0.
      2,    39.027626,   32.4327393,           0.
      3,   36.9063034,   31.5540581,           0.
      4,    36.027626,   29.4327374,           0.
      5,   36.9063034,   27.3114166,           0.
      6,    39.027626,   26.4327374,           0.
      7,   41.1489449,   27.3114166,           0.
      8,    42.027626,   29.4327374,           0.
      9,   20.0568695,   71.6841431,           0.
     10,   16.1903915,   76.2920303,           0.
     11,   13.3205853,   77.3365555,           0.
     12,   10.2666025,   77.3365555,           0.
     13,    7.3967967,   76.2920303,           0.
     14,    3.5303185,   71.6841431,           0.
     15,           3.,   68.6765594,           0.
     16,    3.5303185,   65.6689682,           0.
     17,    7.3967967,   61.0610809,           0.
     18,   10.2666025,   60.0165558,           0.
     19,   13.3205853,   60.0165558,           0.
     20,   16.1903915,   61.0610809,           0.
** ... 3868 like lines cut
*Element, type=C3D8R
   1,    5,    4,  311,  168, 1301, 1300, 1607, 1464
   2,  312,   24,   23,  169, 1608, 1320, 1319, 1465
   3,  310,  437,  430,  177, 1606, 1733, 1726, 1473
   4,   23,   30,  306,  179, 1319, 1326, 1602, 1475
   5,  367,  191,  205,  329, 1663, 1487, 1501, 1625
   6,  192,  273,  148,  147, 1488, 1569, 1444, 1443
   7,   30,   29,  308,  165, 1326, 1325, 1604, 1461
   8,  583, 1236,  541, 1237, 1879, 2532, 1837, 2533
   9,   76,  328,  233,   77, 1372, 1624, 1529, 1373
  10,  386,  330,  195,  232, 1682, 1626, 1491, 1528
  11,  331,  339,  194,  231, 1627, 1635, 1490, 1527
  12,  309,   27,   26,  171, 1605, 1323, 1322, 1467
  13,  340,  363,  532,  500, 1636, 1659, 1828, 1796
  14,   98,   16,   15,   99, 1394, 1312, 1311, 1395
  15,  247,  103,  102,  197, 1543, 1399, 1398, 1493
  16,  327,  105,  104,  198, 1623, 1401, 1400, 1494
  17,  200,  199,  327,  333, 1496, 1495, 1623, 1629
  18,  107,  199,  200,  108, 1403, 1495, 1496, 1404
  19,  253,  116,  115,  252, 1549, 1412, 1411, 1548
  20, 1156,  292,   22,  305, 2452, 1588, 1318, 1601
** ... 2414 like lines cut
*Nset, nset=Batset, generate
    1,  3888,     1
*Elset, elset=Batset, generate
    1,  2434,     1
*Elset, elset=_BatTop_S2, internal, generate
 1218,  2434,     1
*Surface, type=ELEMENT, name=BatTop
_BatTop_S2, S2
*Elset, elset=_BatBot_S1, internal, generate
    1,  1217,     1
*Surface, type=ELEMENT, name=BatBot
_BatBot_S1, S1
*Elset, elset=_Battery-rivet-0_S5, internal
   22,   43,  176, 1239, 1260, 1393
*Elset, elset=_Battery-rivet-0_S4, internal
   49,  178,  181,  182, 1266, 1395, 1398, 1399
*Elset, elset=_Battery-rivet-0_S6, internal
  114,  169, 1331, 1386
*Elset, elset=_Battery-rivet-0_S3, internal
  156, 1373
*Surface, type=ELEMENT, name=Battery-rivet-0
_Battery-rivet-0_S5, S5
_Battery-rivet-0_S4, S4
_Battery-rivet-0_S6, S6
_Battery-rivet-0_S3, S3
*Elset, elset=_Battery-rivet-1_S4, internal
    2,   12,  161,  163, 1219, 1229, 1378, 1380
*Elset, elset=_Battery-rivet-1_S3, internal
    4,    7,   24,   74, 1221, 1224, 1241, 1291
*Surface, type=ELEMENT, name=Battery-rivet-1
_Battery-rivet-1_S4, S4
_Battery-rivet-1_S3, S3
*Elset, elset=_Battery-rivet-2_S4, internal
   14,   93,   95,  244,  295,  298,  304, 1231, 1310, 1312, 1461, 1512, 1515, 1521
*Elset, elset=_Battery-rivet-2_S3, internal
   23,   53,  204,  212, 1240, 1270, 1421, 1429
*Elset, elset=_Battery-rivet-2_S6, internal
   96,  344, 1313, 1561
*Elset, elset=_Battery-rivet-2_S5, internal
   99,  179,  296,  302,  305, 1316, 1396, 1513, 1519, 1522
*Surface, type=ELEMENT, name=Battery-rivet-2
_Battery-rivet-2_S4, S4
_Battery-rivet-2_S3, S3
_Battery-rivet-2_S6, S6
_Battery-rivet-2_S5, S5
*Elset, elset=_Battery-rivet-3_S3, internal
    1,   36,   58, 1218, 1253, 1275
*Elset, elset=_Battery-rivet-3_S4, internal
   26,   45,  170,  172, 1243, 1262, 1387, 1389
*Elset, elset=_Battery-rivet-3_S5, internal
   62, 1279
*Surface, type=ELEMENT, name=Battery-rivet-3
_Battery-rivet-3_S3, S3
_Battery-rivet-3_S4, S4
_Battery-rivet-3_S5, S5
*Orientation, name=Ori-1
1., 0., 0., 0., 1., 0.
3, 0.
** Section: BatOrtho
*Solid Section, elset=Batset, orientation=Ori-1, material=BatOrtho
,
*End Part
**  
*Part, name=CF
*Node
      1,         52.5,           0.,           0.
      2,         52.5,         110.,           0.
      3,           0.,         110.,           0.
      4,           0.,           0.,           0.
      5,         57.5,           0.,           0.
      6,         57.5,         110.,           0.
      7,         110.,           0.,           0.
      8,         110.,         110.,           0.
      9,         52.5,   2.97297287,           0.
     10,         52.5,   5.94594574,           0.
     11,         52.5,   8.91891861,           0.
     12,         52.5,   11.8918915,           0.
     13,         52.5,   14.8648653,           0.
     14,         52.5,   17.8378372,           0.
     15,         52.5,   20.8108101,           0.
     16,         52.5,    23.783783,           0.
     17,         52.5,   26.7567558,           0.
     18,         52.5,   29.7297306,           0.
     19,         52.5,   32.7027016,           0.
     20,         52.5,   35.6756744,           0.
** ... 1462 like lines cut
*Element, type=S4R
  1,   1,   9, 223, 114
  2,   9,  10, 224, 223
  3,  10,  11, 225, 224
  4,  11,  12, 226, 225
  5,  12,  13, 227, 226
  6,  13,  14, 228, 227
  7,  14,  15, 229, 228
  8,  15,  16, 230, 229
  9,  16,  17, 231, 230
 10,  17,  18, 232, 231
 11,  18,  19, 233, 232
 12,  19,  20, 234, 233
 13,  20,  21, 235, 234
 14,  21,  22, 236, 235
 15,  22,  23, 237, 236
 16,  23,  24, 238, 237
 17,  24,  25, 239, 238
 18,  25,  26, 240, 239
 19,  26,  27, 241, 240
 20,  27,  28, 242, 241
** ... 1386 like lines cut
*Nset, nset=CF_set, generate
    1,  1482,     1
*Elset, elset=CF_set, generate
    1,  1406,     1
*Elset, elset=_CFtop_SPOS, internal, generate
    1,  1406,     1
*Surface, type=ELEMENT, name=CFtop
_CFtop_SPOS, SPOS
*Elset, elset=_CFbot_SNEG, internal, generate
    1,  1406,     1
*Surface, type=ELEMENT, name=CFbot
_CFbot_SNEG, SNEG
** Section: CF_sec
*Shell Section, elset=CF_set, composite
0.2, 3, CF_material, 0.
0.2, 3, CF_material, 90.
0.2, 3, CF_material, 90.
0.2, 3, CF_material, 0.
*End Part
**  
*Part, name=Polymer
*Node
      1,   30.5871868,   78.6765594,           0.
      2,   30.5871868,   78.6765594,           5.
      3,   51.0398521,   56.1292496,           0.
      4,   51.0398521,   56.1292496,           5.
      5,          10.,         100.,           0.
      6,          10.,          10.,           0.
      7,         100.,          10.,           0.
      8,         100.,         100.,           0.
      9,         110.,           0.,           0.
     10,           0.,           0.,           0.
     11,           0.,         110.,           0.
     12,         110.,         110.,           0.
     13,          10.,          10.,           5.
     14,          10.,         100.,           5.
     15,         100.,         100.,           5.
     16,         100.,          10.,           5.
     17,           0.,         110.,           5.
     18,           0.,           0.,           5.
     19,         110.,           0.,           5.
     20,         110.,         110.,           5.
** ... 2254 like lines cut
*Element, type=C3D8R
 1, 1851, 1850,  725,  724,  655,  654,   40,   39
 2,  722, 1853, 1852,  723,   37,  657,  656,   38
 3, 1839, 1865, 1842, 1830,  643,  669,  646,  634
 4, 1829,  709,  726, 1849,  633,    1,   41,  653
 5, 1846, 1861, 1843, 1864,  650,  665,  647,  668
 6,  713, 1858, 1836,  714,   28,  662,  640,   29
 7, 1838, 1864, 1843, 1863,  642,  668,  647,  667
 8, 1836, 1858, 1838, 1857,  640,  662,  642,  661
 9, 1859,  711,  710, 1835,  663,   26,   25,  639
10,  709, 1829, 1835,  710,    1,  633,  639,   25
11, 1859, 1835, 1862, 1834,  663,  639,  666,  638
12, 1847, 1862, 1835, 1829,  651,  666,  639,  633
13, 1861, 1844, 1856, 1840,  665,  648,  660,  644
14, 1854, 1832, 1831, 1853,  658,  636,  635,  657
15, 1830, 1842, 1845, 1837,  634,  646,  649,  641
16,  723, 1852, 1851,  724,   38,  656,  655,   39
17, 1841,  716,  715, 1857,  645,   31,   30,  661
18, 1849,  726,  725, 1850,  653,   41,   40,  654
19, 1848, 1860, 1831, 1832,  652,  664,  635,  636
20, 1855, 1854,  721,  720,  659,  658,   36,   35
** ... 1176 like lines cut
*Nset, nset=PolySet
    5,    6,    7,    8,    9,   10,   11,   12,   13,   14,   15,   16,   17,   18,   19,   20
   77,   78,   79,   80,   81,   82,   83,   84,   85,   86,   87,   88,   89,   90,   91,   92
   93,   94,   95,   96,   97,   98,   99,  100,  101,  102,  103,  104,  105,  106,  107,  108
  109,  110,  111,  112,  113,  114,  115,  116,  117,  118,  119,  120,  121,  122,  123,  124
  125,  126,  127,  128,  129,  130,  131,  132,  133,  134,  135,  136,  137,  138,  139,  140
  141,  142,  143,  144,  145,  146,  147,  148,  149,  150,  151,  152,  153,  154,  155,  156
  157,  158,  159,  160,  161,  162,  163,  164,  165,  166,  167,  168,  169,  170,  171,  172
  173,  174,  175,  176,  177,  178,  179,  180,  181,  182,  183,  184,  185,  186,  187,  188
  189,  190,  191,  192,  193,  194,  195,  196,  197,  198,  199,  200,  201,  202,  203,  204
  205,  206,  207,  208,  209,  210,  211,  212,  213,  214,  215,  216,  217,  218,  219,  220
  221,  222,  223,  224,  225,  226,  227,  228,  229,  230,  231,  232,  233,  234,  235,  236
  237,  238,  239,  240,  241,  242,  243,  244,  245,  246,  247,  248,  249,  250,  251,  252
  253,  254,  255,  256,  257,  258,  259,  260,  261,  262,  263,  264,  265,  266,  267,  268
  269,  270,  271,  272,  273,  274,  275,  276,  277,  278,  279,  280,  281,  282,  283,  284
  285,  286,  287,  288,  289,  290,  291,  292,  293,  294,  295,  296,  297,  298,  299,  300
  301,  302,  303,  304,  305,  306,  307,  308,  309,  310,  311,  312,  313,  314,  315,  316
  317,  318,  319,  320,  321,  322,  323,  324,  325,  326,  327,  328,  329,  330,  331,  332
  333,  334,  335,  336,  337,  338,  339,  340,  341,  342,  343,  344,  345,  346,  347,  348
  349,  350,  351,  352,  353,  354,  355,  356,  357,  358,  359,  360,  361,  362,  363,  364
  365,  366,  367,  368,  369,  370,  371,  372,  373,  374,  375,  376,  377,  378,  379,  380
** ... 106 like lines cut
*Elset, elset=PolySet, generate
  109,  1180,     1
*Nset, nset=_PickedSet12, internal
    3,    4,   59,   60,   61,   62,   63,   64,   65,   66,   67,   68,   69,   70,   71,   72
   73,   74,   75,   76,  727,  728,  729,  730,  731,  732,  733,  734,  735,  736,  737,  738
  739,  740,  741,  742,  743,  744, 1867, 1868, 1869, 1870
*Elset, elset=_PickedSet12, internal, generate
  93,  108,    1
*Nset, nset=_PickedSet17, internal
   21,   22,  605,  606,  607,  608,  609,  610,  611,  612,  613,  614,  615,  616,  617,  618
 1809, 1810, 1811, 1812, 1813, 1814, 1815, 1816, 1817, 1818, 2273
*Elset, elset=_PickedSet17, internal, generate
 1181,  1188,     1
*Nset, nset=_PickedSet22, internal
    1,    2,   25,   26,   27,   28,   29,   30,   31,   32,   33,   34,   35,   36,   37,   38
   39,   40,   41,   42,   43,   44,   45,   46,   47,   48,   49,   50,   51,   52,   53,   54
   55,   56,   57,   58,  633,  634,  635,  636,  637,  638,  639,  640,  641,  642,  643,  644
  645,  646,  647,  648,  649,  650,  651,  652,  653,  654,  655,  656,  657,  658,  659,  660
  661,  662,  663,  664,  665,  666,  667,  668,  669,  670,  671,  672,  673,  674,  675,  676
  677,  678,  679,  680,  681,  682,  683,  684,  685,  686,  687,  688,  689,  690,  691,  692
  693,  694,  695,  696,  697,  698,  699,  700,  701,  702,  703,  704,  705,  706,  707,  708
  709,  710,  711,  712,  713,  714,  715,  716,  717,  718,  719,  720,  721,  722,  723,  724
  725,  726, 1829, 1830, 1831, 1832, 1833, 1834, 1835, 1836, 1837, 1838, 1839, 1840, 1841, 1842
 1843, 1844, 1845, 1846, 1847, 1848, 1849, 1850, 1851, 1852, 1853, 1854, 1855, 1856, 1857, 1858
 1859, 1860, 1861, 1862, 1863, 1864, 1865, 1866
*Elset, elset=_PickedSet22, internal, generate
  1,  92,   1
*Nset, nset=_PickedSet27, internal
   23,   24,  619,  620,  621,  622,  623,  624,  625,  626,  627,  628,  629,  630,  631,  632
 1819, 1820, 1821, 1822, 1823, 1824, 1825, 1826, 1827, 1828, 2274
*Elset, elset=_PickedSet27, internal, generate
 1189,  1196,     1
*Elset, elset=_PolyTop_S2, internal, generate
  645,  1180,     1
*Surface, type=ELEMENT, name=PolyTop
_PolyTop_S2, S2
*Elset, elset=_PolyBot_S1, internal, generate
 109,  644,    1
*Surface, type=ELEMENT, name=PolyBot
_PolyBot_S1, S1
*Elset, elset=_Polymer-rivet-0_S4, internal
  93,  94,  95,  97, 101, 102, 103, 105
*Elset, elset=_Polymer-rivet-0_S5, internal
  94,  95,  96,  97, 102, 103, 104, 105
*Elset, elset=_Polymer-rivet-0_S6, internal
  99, 107
*Elset, elset=_Polymer-rivet-0_S3, internal
 100, 108
*Surface, type=ELEMENT, name=Polymer-rivet-0
_Polymer-rivet-0_S4, S4
_Polymer-rivet-0_S5, S5
_Polymer-rivet-0_S6, S6
_Polymer-rivet-0_S3, S3
*Elset, elset=_Polymer-rivet-top-0_S1, internal, generate
 101,  108,    1
*Surface, type=ELEMENT, name=Polymer-rivet-top-0
_Polymer-rivet-top-0_S1, S1
*Elset, elset=_Polymer-rivet-bot-0_S2, internal, generate
  93,  100,    1
*Surface, type=ELEMENT, name=Polymer-rivet-bot-0
_Polymer-rivet-bot-0_S2, S2
*Elset, elset=_Polymer-rivet-1_S3, internal
 1181, 1183, 1184, 1185, 1187, 1188
*Elset, elset=_Polymer-rivet-1_S6, internal
 1181, 1183, 1184, 1185, 1187, 1188
*Elset, elset=_Polymer-rivet-1_S4, internal
 1182, 1186
*Elset, elset=_Polymer-rivet-1_S5, internal
 1182, 1186
*Surface, type=ELEMENT, name=Polymer-rivet-1
_Polymer-rivet-1_S3, S3
_Polymer-rivet-1_S6, S6
_Polymer-rivet-1_S4, S4
_Polymer-rivet-1_S5, S5
*Elset, elset=_Polymer-rivet-top-1_S1, internal, generate
 1185,  1188,     1
*Surface, type=ELEMENT, name=Polymer-rivet-top-1
_Polymer-rivet-top-1_S1, S1
*Elset, elset=_Polymer-rivet-bot-1_S2, internal, generate
 1181,  1184,     1
*Surface, type=ELEMENT, name=Polymer-rivet-bot-1
_Polymer-rivet-bot-1_S2, S2
*Elset, elset=_Polymer-rivet-2_S5, internal
  1, 20, 30, 47, 66, 76
*Elset, elset=_Polymer-rivet-2_S6, internal
  2,  6, 10, 16, 21, 48, 52, 56, 62, 67
*Elset, elset=_Polymer-rivet-2_S4, internal
  4,  9, 17, 18, 23, 26, 31, 42, 43, 50, 55, 63, 64, 69, 72, 77
 88, 89
*Elset, elset=_Polymer-rivet-2_S3, internal
 24, 70
*Surface, type=ELEMENT, name=Polymer-rivet-2
_Polymer-rivet-2_S5, S5
_Polymer-rivet-2_S6, S6
_Polymer-rivet-2_S4, S4
_Polymer-rivet-2_S3, S3
*Elset, elset=_Polymer-rivet-top-2_S1, internal, generate
 47,  92,   1
*Surface, type=ELEMENT, name=Polymer-rivet-top-2
_Polymer-rivet-top-2_S1, S1
*Elset, elset=_Polymer-rivet-bot-2_S2, internal, generate
  1,  46,   1
*Surface, type=ELEMENT, name=Polymer-rivet-bot-2
_Polymer-rivet-bot-2_S2, S2
*Elset, elset=_Polymer-rivet-3_S3, internal, generate
 1189,  1195,     2
*Elset, elset=_Polymer-rivet-3_S6, internal, generate
 1189,  1195,     2
*Elset, elset=_Polymer-rivet-3_S4, internal, generate
 1190,  1196,     2
*Elset, elset=_Polymer-rivet-3_S5, internal, generate
 1190,  1196,     2
*Surface, type=ELEMENT, name=Polymer-rivet-3
_Polymer-rivet-3_S3, S3
_Polymer-rivet-3_S6, S6
_Polymer-rivet-3_S4, S4
_Polymer-rivet-3_S5, S5
*Elset, elset=_Polymer-rivet-top-3_S1, internal, generate
 1193,  1196,     1
*Surface, type=ELEMENT, name=Polymer-rivet-top-3
_Polymer-rivet-top-3_S1, S1
*Elset, elset=_Polymer-rivet-bot-3_S2, internal, generate
 1189,  1192,     1
*Surface, type=ELEMENT, name=Polymer-rivet-bot-3
_Polymer-rivet-bot-3_S2, S2
** Section: PolySec
*Solid Section, elset=_PickedSet22, material=Polymer
,
** Section: PolySec
*Solid Section, elset=_PickedSet12, material=Polymer
,
** Section: PolySec
*Solid Section, elset=PolySet, material=Polymer
,
** Section: PolySec
*Solid Section, elset=_PickedSet17, material=Polymer
,
** Section: PolySec
*Solid Section, elset=_PickedSet27, material=Polymer
,
*End Part
**  
**
** ASSEMBLY
**
*Assembly, name=Assembly
**  
*Instance, name=Polymer-1, part=Polymer
*End Instance
**  
*Instance, name=Battery-1, part=Battery
         10.,          10.,           0.
*End Instance
**  
*Instance, name=CF-1, part=CF
          0.,           0.,         -0.4
*End Instance
**  
*Instance, name=CF-2, part=CF
          0.,           0.,          5.4
*End Instance
**  
*Node
      1,          55.,          55.,    5.4000001
*Nset, nset=VerticalSupport, instance=CF-1
   3,   4,   7,   8,  62,  63,  64,  65,  66,  67,  68,  69,  70,  71,  72,  73
  74,  75,  76,  77,  78,  79,  80,  81,  82,  83,  84,  85,  86,  87,  88,  89
  90,  91,  92,  93,  94,  95,  96,  97, 170, 171, 172, 173, 174, 175, 176, 177
 178, 179, 180, 181, 182, 183, 184, 185, 186, 187, 188, 189, 190, 191, 192, 193
 194, 195, 196, 197, 198, 199, 200, 201, 202, 203, 204, 205
*Elset, elset=VerticalSupport, instance=CF-1
  630,  631,  632,  633,  634,  635,  636,  637,  638,  639,  640,  641,  642,  643,  644,  645
  646,  647,  648,  649,  650,  651,  652,  653,  654,  655,  656,  657,  658,  659,  660,  661
  662,  663,  664,  665,  666, 1370, 1371, 1372, 1373, 1374, 1375, 1376, 1377, 1378, 1379, 1380
 1381, 1382, 1383, 1384, 1385, 1386, 1387, 1388, 1389, 1390, 1391, 1392, 1393, 1394, 1395, 1396
 1397, 1398, 1399, 1400, 1401, 1402, 1403, 1404, 1405, 1406
*Nset, nset=XDirSupport, instance=CF-1
 3,
*Nset, nset=YDirSupport, instance=CF-1
 7,
*Nset, nset=rigid_loading_set, instance=CF-2
   1,   2,   5,   6,   9,  10,  11,  12,  13,  14,  15,  16,  17,  18,  19,  20
  21,  22,  23,  24,  25,  26,  27,  28,  29,  30,  31,  32,  33,  34,  35,  36
  37,  38,  39,  40,  41,  42,  43,  44, 115, 116, 117, 118, 119, 120, 121, 122
 123, 124, 125, 126, 127, 128, 129, 130, 131, 132, 133, 134, 135, 136, 137, 138
 139, 140, 141, 142, 143, 144, 145, 146, 147, 148, 149, 150, 151, 152, 835, 836
 837, 838, 839, 840, 841, 842, 843, 844, 845, 846, 847, 848, 849, 850, 851, 852
 853, 854, 855, 856, 857, 858, 859, 860, 861, 862, 863, 864, 865, 866, 867, 868
 869, 870
*Elset, elset=rigid_loading_set, instance=CF-2, generate
 667,  740,    1
*Nset, nset=_PickedSet14, internal
 1,
*Elset, elset=__PickedSurf15_SPOS, internal, instance=CF-2, generate
 667,  740,    1
*Surface, type=ELEMENT, name=_PickedSurf15, internal
__PickedSurf15_SPOS, SPOS
** Constraint: BatPoly-0
*Tie, name=BatPoly-0, adjust=no, position tolerance=1.
Battery-1.Battery-rivet-0, Polymer-1.Polymer-rivet-0
** Constraint: BatPoly-1
*Tie, name=BatPoly-1, adjust=no, position tolerance=1.
Battery-1.Battery-rivet-1, Polymer-1.Polymer-rivet-1
** Constraint: BatPoly-2
*Tie, name=BatPoly-2, adjust=no, position tolerance=1.
Battery-1.Battery-rivet-2, Polymer-1.Polymer-rivet-2
** Constraint: BatPoly-3
*Tie, name=BatPoly-3, adjust=no, position tolerance=1.
Battery-1.Battery-rivet-3, Polymer-1.Polymer-rivet-3
** Constraint: CF1Poly
*Tie, name=CF1Poly, adjust=no, position tolerance=1.
Polymer-1.PolyBot, CF-1.CFtop
** Constraint: CF1Poly-Rivet-0
*Tie, name=CF1Poly-Rivet-0, adjust=no, position tolerance=1.
Polymer-1.Polymer-rivet-bot-0, CF-1.CFtop
** Constraint: CF1Poly-Rivet-1
*Tie, name=CF1Poly-Rivet-1, adjust=no, position tolerance=1.
Polymer-1.Polymer-rivet-bot-1, CF-1.CFtop
** Constraint: CF1Poly-Rivet-2
*Tie, name=CF1Poly-Rivet-2, adjust=no, position tolerance=1.
Polymer-1.Polymer-rivet-bot-2, CF-1.CFtop
** Constraint: CF1Poly-Rivet-3
*Tie, name=CF1Poly-Rivet-3, adjust=no, position tolerance=1.
Polymer-1.Polymer-rivet-bot-3, CF-1.CFtop
** Constraint: CF2Poly
*Tie, name=CF2Poly, adjust=no, position tolerance=1.
Polymer-1.PolyTop, CF-2.CFbot
** Constraint: CF2Poly-Rivet-0
*Tie, name=CF2Poly-Rivet-0, adjust=no, position tolerance=1.
Polymer-1.Polymer-rivet-top-0, CF-2.CFbot
** Constraint: CF2Poly-Rivet-1
*Tie, name=CF2Poly-Rivet-1, adjust=no, position tolerance=1.
Polymer-1.Polymer-rivet-top-1, CF-2.CFbot
** Constraint: CF2Poly-Rivet-2
*Tie, name=CF2Poly-Rivet-2, adjust=no, position tolerance=1.
Polymer-1.Polymer-rivet-top-2, CF-2.CFbot
** Constraint: CF2Poly-Rivet-3
*Tie, name=CF2Poly-Rivet-3, adjust=no, position tolerance=1.
Polymer-1.Polymer-rivet-top-3, CF-2.CFbot
** Constraint: LoadingRigidBody
*Rigid Body, ref node=_PickedSet14, tie nset=rigid_loading_set
*End Assembly
** 
** MATERIALS
** 
*Material, name=BatOrtho
*Elastic, type=ENGINEERING CONSTANTS
1090., 109., 500., 0.15, 0.15, 0.15, 474., 474.
 474.,
*Material, name=CF_material
*Elastic, type=ENGINEERING CONSTANTS
30420.,  4023.,  4023.,   0.29,   0.29, 0.3928,  2081.,  2081.
  1440.,
*Material, name=Polymer
*Elastic
500., 0.3
** 
** INTERACTION PROPERTIES
** 
*Surface Interaction, name=NormCont
1.,
*Friction, slip tolerance=0.005
 0.3,
*Surface Behavior, pressure-overclosure=HARD
** 
** INTERACTIONS
** 
** Interaction: CF1Bat
*Contact Pair, interaction=NormCont, type=SURFACE TO SURFACE
Battery-1.BatBot, CF-1.CFtop
** Interaction: CF2Bat
*Contact Pair, interaction=NormCont, type=SURFACE TO SURFACE
Battery-1.BatTop, CF-2.CFbot
** ----------------------------------------------------------------
** 
** STEP: Loading
** 
*Step, name=Loading, nlgeom=NO
*Static
1., 1., 1e-05, 1.
** 
** BOUNDARY CONDITIONS
** 
** Name: VerticalSupport Type: Displacement/Rotation
*Boundary
VerticalSupport, 3, 3
** Name: XDirSupport Type: Displacement/Rotation
*Boundary
XDirSupport, 1, 1
** Name: YDirSupport Type: Displacement/Rotation
*Boundary
YDirSupport, 2, 2
** 
** LOADS
** 
** Name: Load-1   Type: Pressure
*Dsload
_PickedSurf15, P, 0.181818
** 
** OUTPUT REQUESTS
** 
*Restart, write, frequency=0
** 
** FIELD OUTPUT: F-Output-1
** 
*Output, field
*Node Output
U, UR, UT
*Element Output, directions=YES
EVOL, 
** 
** HISTORY OUTPUT: H-Output-1
** 
*Output, history, variable=PRESELECT
*End Step
