*Heading
** Job name: Job-42 Model name: Model-1
** Generated by: Abaqus/CAE 2019
*Preprint, echo=NO, model=NO, history=NO, contact=NO
**
** PARTS
**
*Part, name=Battery
*Node
      1,   55.6795921,   55.9404945,           0.
      2,   53.9993629,   58.0474319,           0.
      3,   51.5713654,   59.2166939,           0.
      4,    46.448494,   58.0474319,           0.
      5,   44.7682686,   55.9404945,           0.
      6,    44.168602,   53.3131866,           0.
      7,   44.7682686,   50.6858788,           0.
      8,    46.448494,   48.5789413,           0.
      9,   48.8764915,   47.4096794,           0.
     10,   53.9993629,   48.5789413,           0.
     11,   55.6795921,   50.6858788,           0.
     12,   56.2792587,   53.3131866,           0.
     13,   39.4235382,   25.5518856,           0.
     14,   37.3022194,   26.4305649,           0.
     15,   35.1808968,   25.5518856,           0.
     16,   34.3022194,   23.4305649,           0.
     17,   35.1808968,   21.3092461,           0.
     18,   37.3022194,   20.4305649,           0.
     19,   39.4235382,   21.3092461,           0.
     20,   40.3022194,   23.4305649,           0.
** ... 4165 like lines cut
*Element, type=C3D8R
   1,  127,  266,  267,  128, 1522, 1661, 1662, 1523
   2,  263,  123,  122,  262, 1658, 1518, 1517, 1657
   3,  816, 1206,  802,  880, 2211, 2601, 2197, 2275
   4,  444, 1227,  430,  168, 1839, 2622, 1825, 1563
   5,  105,  251,  252,  106, 1500, 1646, 1647, 1501
   6,  251,  105,  104,  197, 1646, 1500, 1499, 1592
   7,   96,  307,  309,   97, 1491, 1702, 1704, 1492
   8,  564,  480,  565,  518, 1959, 1875, 1960, 1913
   9,  249,  103,  102,  198, 1644, 1498, 1497, 1593
  10,   86,  239,  240,   87, 1481, 1634, 1635, 1482
  11,  199,  232,   68,   67, 1594, 1627, 1463, 1462
  12,  239,   86,   85,  238, 1634, 1481, 1480, 1633
  13,  311,  350,  454,  443, 1706, 1745, 1849, 1838
  14,  169,  296,  172,   14, 1564, 1691, 1567, 1409
  15, 1133,  534,  296,  405, 2528, 1929, 1691, 1800
  16,    9,    8, 1217,  185, 1404, 1403, 2612, 1580
  17,  303,  169,   14,   13, 1698, 1564, 1409, 1408
  18,  148,  147,  277,  278, 1543, 1542, 1672, 1673
  19,  340,  281,  279,  400, 1735, 1676, 1674, 1795
  20,  540,  163,   32,  160, 1935, 1558, 1427, 1555
** ... 2618 like lines cut
*Nset, nset=Batset, generate
    1,  4185,     1
*Elset, elset=Batset, generate
    1,  2638,     1
*Elset, elset=_BatTop_S2, internal, generate
 1320,  2638,     1
*Surface, type=ELEMENT, name=BatTop
_BatTop_S2, S2
*Elset, elset=_BatBot_S1, internal, generate
    1,  1319,     1
*Surface, type=ELEMENT, name=BatBot
_BatBot_S1, S1
*Elset, elset=_Battery-rivet-0_S6, internal
   41,  142, 1360, 1461
*Elset, elset=_Battery-rivet-0_S4, internal
   50,  143,  172, 1369, 1462, 1491
*Elset, elset=_Battery-rivet-0_S3, internal
  136, 1455
*Elset, elset=_Battery-rivet-0_S5, internal
  153,  297, 1472, 1616
*Surface, type=ELEMENT, name=Battery-rivet-0
_Battery-rivet-0_S6, S6
_Battery-rivet-0_S4, S4
_Battery-rivet-0_S3, S3
_Battery-rivet-0_S5, S5
*Elset, elset=_Battery-rivet-1_S5, internal
   27,  160, 1346, 1479
*Elset, elset=_Battery-rivet-1_S4, internal
   30,  148,  155,  161,  162, 1349, 1467, 1474, 1480, 1481
*Elset, elset=_Battery-rivet-1_S3, internal
  109, 1428
*Surface, type=ELEMENT, name=Battery-rivet-1
_Battery-rivet-1_S5, S5
_Battery-rivet-1_S4, S4
_Battery-rivet-1_S3, S3
*Elset, elset=_Battery-rivet-2_S5, internal
   17, 1336
*Elset, elset=_Battery-rivet-2_S4, internal
   47,   75,  152,  165,  167,  175, 1366, 1394, 1471, 1484, 1486, 1494
*Elset, elset=_Battery-rivet-2_S3, internal
   56, 1375
*Surface, type=ELEMENT, name=Battery-rivet-2
_Battery-rivet-2_S5, S5
_Battery-rivet-2_S4, S4
_Battery-rivet-2_S3, S3
*Elset, elset=_Battery-rivet-3_S3, internal
   16,  133,  156, 1335, 1452, 1475
*Elset, elset=_Battery-rivet-3_S5, internal
   29,  178,  183,  189, 1348, 1497, 1502, 1508
*Elset, elset=_Battery-rivet-3_S4, internal
  126,  181,  182,  184,  186,  187, 1445, 1500, 1501, 1503, 1505, 1506
*Elset, elset=_Battery-rivet-3_S6, internal
  166, 1485
*Surface, type=ELEMENT, name=Battery-rivet-3
_Battery-rivet-3_S3, S3
_Battery-rivet-3_S5, S5
_Battery-rivet-3_S4, S4
_Battery-rivet-3_S6, S6
*Orientation, name=Ori-1
1., 0., 0., 0., 1., 0.
3, 0.
** Section: BatOrtho
*Solid Section, elset=Batset, orientation=Ori-1, material=BatOrtho
,
*End Part
**  
*Part, name=CF
*Node
      1,         52.5,           0.,           0.
      2,         52.5,         110.,           0.
      3,           0.,         110.,           0.
      4,           0.,           0.,           0.
      5,         57.5,           0.,           0.
      6,         57.5,         110.,           0.
      7,         110.,           0.,           0.
      8,         110.,         110.,           0.
      9,         52.5,   2.97297287,           0.
     10,         52.5,   5.94594574,           0.
     11,         52.5,   8.91891861,           0.
     12,         52.5,   11.8918915,           0.
     13,         52.5,   14.8648653,           0.
     14,         52.5,   17.8378372,           0.
     15,         52.5,   20.8108101,           0.
     16,         52.5,    23.783783,           0.
     17,         52.5,   26.7567558,           0.
     18,         52.5,   29.7297306,           0.
     19,         52.5,   32.7027016,           0.
     20,         52.5,   35.6756744,           0.
** ... 1462 like lines cut
*Element, type=S4R
  1,   1,   9, 223, 114
  2,   9,  10, 224, 223
  3,  10,  11, 225, 224
  4,  11,  12, 226, 225
  5,  12,  13, 227, 226
  6,  13,  14, 228, 227
  7,  14,  15, 229, 228
  8,  15,  16, 230, 229
  9,  16,  17, 231, 230
 10,  17,  18, 232, 231
 11,  18,  19, 233, 232
 12,  19,  20, 234, 233
 13,  20,  21, 235, 234
 14,  21,  22, 236, 235
 15,  22,  23, 237, 236
 16,  23,  24, 238, 237
 17,  24,  25, 239, 238
 18,  25,  26, 240, 239
 19,  26,  27, 241, 240
 20,  27,  28, 242, 241
** ... 1386 like lines cut
*Nset, nset=CF_set, generate
    1,  1482,     1
*Elset, elset=CF_set, generate
    1,  1406,     1
*Elset, elset=_CFtop_SPOS, internal, generate
    1,  1406,     1
*Surface, type=ELEMENT, name=CFtop
_CFtop_SPOS, SPOS
*Elset, elset=_CFbot_SNEG, internal, generate
    1,  1406,     1
*Surface, type=ELEMENT, name=CFbot
_CFbot_SNEG, SNEG
** Section: CF_sec
*Shell Section, elset=CF_set, composite
0.2, 3, CF_material, 0.
0.2, 3, CF_material, 90.
0.2, 3, CF_material, 90.
0.2, 3, CF_material, 0.
*End Part
**  
*Part, name=Polymer
*Node
      1,   50.3022194,   33.4305649,           0.
      2,   50.3022194,   33.4305649,           5.
      3,    92.407547,          16.,           0.
      4,    92.407547,          16.,           5.
      5,          10.,         100.,           0.
      6,          10.,          10.,           0.
      7,         100.,          10.,           0.
      8,         100.,         100.,           0.
      9,         110.,           0.,           0.
     10,           0.,           0.,           0.
     11,           0.,         110.,           0.
     12,         110.,         110.,           0.
     13,          10.,          10.,           5.
     14,          10.,         100.,           5.
     15,         100.,         100.,           5.
     16,         100.,          10.,           5.
     17,           0.,         110.,           5.
     18,           0.,           0.,           5.
     19,         110.,           0.,           5.
     20,         110.,         110.,           5.
** ... 2167 like lines cut
*Element, type=C3D8R
1,  626,  625, 1765,  627,   27,   26,  621,   28
2,  624,  623, 1765,  625,   25,    1,  621,   26
3,  630,  629, 1765,  623,   31,   30,  621,    1
4, 1765,  629,  628,  627,  621,   30,   29,   28
5,   36,   37,  622,   35,  626,  625, 1765,  627
6,   38,    2,  622,   37,  624,  623, 1765,  625
7,   32,   33,  622,    2,  630,  629, 1765,  623
8,  622,   33,   34,   35, 1765,  629,  628,  627
 9, 1766,  633,  640,  639,  631,    3,   45,   44
10,  636,  635, 1766,  637,   41,   40,  631,   42
11,  634,  633, 1766,  635,   39,    3,  631,   40
12, 1766,  639,  638,  637,  631,   44,   43,   42
13,  632,    4,   46,   47, 1766,  633,  640,  639
14,   50,   51,  632,   49,  636,  635, 1766,  637
15,   52,    4,  632,   51,  634,  633, 1766,  635
16,  632,   47,   48,   49, 1766,  639,  638,  637
  17,  975,  976,   67,   66, 2101, 2102, 1582, 1583
  18,   68,  977,  665,   69, 1581, 2103, 1791, 1580
  19,  796,  821,  222,  221, 1922, 1947, 1463, 1464
  20,  797,  798,  224,  223, 1923, 1924, 1461, 1462
** ... 1124 like lines cut
*Nset, nset=PolySet
    5,    6,    7,    8,    9,   10,   11,   12,   13,   14,   15,   16,   17,   18,   19,   20
   53,   54,   55,   56,   57,   58,   59,   60,   61,   62,   63,   64,   65,   66,   67,   68
   69,   70,   71,   72,   73,   74,   75,   76,   77,   78,   79,   80,   81,   82,   83,   84
   85,   86,   87,   88,   89,   90,   91,   92,   93,   94,   95,   96,   97,   98,   99,  100
  101,  102,  103,  104,  105,  106,  107,  108,  109,  110,  111,  112,  113,  114,  115,  116
  117,  118,  119,  120,  121,  122,  123,  124,  125,  126,  127,  128,  129,  130,  131,  132
  133,  134,  135,  136,  137,  138,  139,  140,  141,  142,  143,  144,  145,  146,  147,  148
  149,  150,  151,  152,  153,  154,  155,  156,  157,  158,  159,  160,  161,  162,  163,  164
  165,  166,  167,  168,  169,  170,  171,  172,  173,  174,  175,  176,  177,  178,  179,  180
  181,  182,  183,  184,  185,  186,  187,  188,  189,  190,  191,  192,  193,  194,  195,  196
  197,  198,  199,  200,  201,  202,  203,  204,  205,  206,  207,  208,  209,  210,  211,  212
  213,  214,  215,  216,  217,  218,  219,  220,  221,  222,  223,  224,  225,  226,  227,  228
  229,  230,  231,  232,  233,  234,  235,  236,  237,  238,  239,  240,  241,  242,  243,  244
  245,  246,  247,  248,  249,  250,  251,  252,  253,  254,  255,  256,  257,  258,  259,  260
  261,  262,  263,  264,  265,  266,  267,  268,  269,  270,  271,  272,  273,  274,  275,  276
  277,  278,  279,  280,  281,  282,  283,  284,  285,  286,  287,  288,  289,  290,  291,  292
  293,  294,  295,  296,  297,  298,  299,  300,  301,  302,  303,  304,  305,  306,  307,  308
  309,  310,  311,  312,  313,  314,  315,  316,  317,  318,  319,  320,  321,  322,  323,  324
  325,  326,  327,  328,  329,  330,  331,  332,  333,  334,  335,  336,  337,  338,  339,  340
  341,  342,  343,  344,  345,  346,  347,  348,  349,  350,  351,  352,  353,  354,  355,  356
** ... 106 like lines cut
*Elset, elset=PolySet, generate
   17,  1088,     1
*Nset, nset=_PickedSet12, internal
    3,    4,   39,   40,   41,   42,   43,   44,   45,   46,   47,   48,   49,   50,   51,   52
  631,  632,  633,  634,  635,  636,  637,  638,  639,  640, 1766
*Elset, elset=_PickedSet12, internal, generate
  9,  16,   1
*Nset, nset=_PickedSet17, internal
   21,   22,  581,  582,  583,  584,  585,  586,  587,  588,  589,  590,  591,  592,  593,  594
 1705, 1706, 1707, 1708, 1709, 1710, 1711, 1712, 1713, 1714, 2169
*Elset, elset=_PickedSet17, internal, generate
 1089,  1096,     1
*Nset, nset=_PickedSet22, internal
    1,    2,   25,   26,   27,   28,   29,   30,   31,   32,   33,   34,   35,   36,   37,   38
  621,  622,  623,  624,  625,  626,  627,  628,  629,  630, 1765
*Elset, elset=_PickedSet22, internal, generate
 1,  8,  1
*Nset, nset=_PickedSet27, internal
   23,   24,  595,  596,  597,  598,  599,  600,  601,  602,  603,  604,  605,  606,  607,  608
  609,  610,  611,  612,  613,  614,  615,  616,  617,  618,  619,  620, 1715, 1716, 1717, 1718
 1719, 1720, 1721, 1722, 1723, 1724, 1725, 1726, 1727, 1728, 1729, 1730, 1731, 1732, 1733, 1734
 1735, 1736, 1737, 1738, 1739, 1740, 1741, 1742, 1743, 1744, 1745, 1746, 1747, 1748, 1749, 1750
 1751, 1752, 1753, 1754, 1755, 1756, 1757, 1758, 1759, 1760, 1761, 1762, 1763, 1764, 2170, 2171
 2172, 2173, 2174, 2175, 2176, 2177, 2178, 2179, 2180, 2181, 2182, 2183, 2184, 2185, 2186, 2187
*Elset, elset=_PickedSet27, internal, generate
 1097,  1144,     1
*Elset, elset=_PolyTop_S2, internal, generate
  553,  1088,     1
*Surface, type=ELEMENT, name=PolyTop
_PolyTop_S2, S2
*Elset, elset=_PolyBot_S1, internal, generate
  17,  552,    1
*Surface, type=ELEMENT, name=PolyBot
_PolyBot_S1, S1
*Elset, elset=_Polymer-rivet-0_S4, internal
  9, 12, 13, 16
*Elset, elset=_Polymer-rivet-0_S5, internal
  9, 12, 13, 16
*Elset, elset=_Polymer-rivet-0_S3, internal
 10, 11, 14, 15
*Elset, elset=_Polymer-rivet-0_S6, internal
 10, 11, 14, 15
*Surface, type=ELEMENT, name=Polymer-rivet-0
_Polymer-rivet-0_S4, S4
_Polymer-rivet-0_S5, S5
_Polymer-rivet-0_S6, S6
_Polymer-rivet-0_S3, S3
*Elset, elset=_Polymer-rivet-top-0_S1, internal, generate
 13,  16,   1
*Surface, type=ELEMENT, name=Polymer-rivet-top-0
_Polymer-rivet-top-0_S1, S1
*Elset, elset=_Polymer-rivet-bot-0_S2, internal, generate
  9,  12,   1
*Surface, type=ELEMENT, name=Polymer-rivet-bot-0
_Polymer-rivet-bot-0_S2, S2
*Elset, elset=_Polymer-rivet-1_S4, internal
 1089, 1092, 1093, 1096
*Elset, elset=_Polymer-rivet-1_S5, internal
 1089, 1092, 1093, 1096
*Elset, elset=_Polymer-rivet-1_S3, internal
 1090, 1091, 1094, 1095
*Elset, elset=_Polymer-rivet-1_S6, internal
 1090, 1091, 1094, 1095
*Surface, type=ELEMENT, name=Polymer-rivet-1
_Polymer-rivet-1_S4, S4
_Polymer-rivet-1_S5, S5
_Polymer-rivet-1_S6, S6
_Polymer-rivet-1_S3, S3
*Elset, elset=_Polymer-rivet-top-1_S1, internal, generate
 1093,  1096,     1
*Surface, type=ELEMENT, name=Polymer-rivet-top-1
_Polymer-rivet-top-1_S1, S1
*Elset, elset=_Polymer-rivet-bot-1_S2, internal, generate
 1089,  1092,     1
*Surface, type=ELEMENT, name=Polymer-rivet-bot-1
_Polymer-rivet-bot-1_S2, S2
*Elset, elset=_Polymer-rivet-2_S3, internal
 1, 2, 3, 5, 6, 7
*Elset, elset=_Polymer-rivet-2_S6, internal
 1, 2, 3, 5, 6, 7
*Elset, elset=_Polymer-rivet-2_S4, internal
 4, 8
*Elset, elset=_Polymer-rivet-2_S5, internal
 4, 8
*Surface, type=ELEMENT, name=Polymer-rivet-2
_Polymer-rivet-2_S3, S3
_Polymer-rivet-2_S6, S6
_Polymer-rivet-2_S4, S4
_Polymer-rivet-2_S5, S5
*Elset, elset=_Polymer-rivet-top-2_S1, internal, generate
 5,  8,  1
*Surface, type=ELEMENT, name=Polymer-rivet-top-2
_Polymer-rivet-top-2_S1, S1
*Elset, elset=_Polymer-rivet-bot-2_S2, internal, generate
 1,  4,  1
*Surface, type=ELEMENT, name=Polymer-rivet-bot-2
_Polymer-rivet-bot-2_S2, S2
*Elset, elset=_Polymer-rivet-3_S4, internal
 1097, 1098, 1107, 1110, 1111, 1112, 1114, 1121, 1122, 1131, 1134, 1135, 1136, 1138
*Elset, elset=_Polymer-rivet-3_S3, internal
 1099, 1100, 1104, 1119, 1123, 1124, 1128, 1143
*Elset, elset=_Polymer-rivet-3_S6, internal
 1101, 1108, 1113, 1125, 1132, 1137
*Surface, type=ELEMENT, name=Polymer-rivet-3
_Polymer-rivet-3_S4, S4
_Polymer-rivet-3_S3, S3
_Polymer-rivet-3_S6, S6
*Elset, elset=_Polymer-rivet-top-3_S1, internal, generate
 1121,  1144,     1
*Surface, type=ELEMENT, name=Polymer-rivet-top-3
_Polymer-rivet-top-3_S1, S1
*Elset, elset=_Polymer-rivet-bot-3_S2, internal, generate
 1097,  1120,     1
*Surface, type=ELEMENT, name=Polymer-rivet-bot-3
_Polymer-rivet-bot-3_S2, S2
** Section: PolySec
*Solid Section, elset=_PickedSet22, material=Polymer
,
** Section: PolySec
*Solid Section, elset=_PickedSet12, material=Polymer
,
** Section: PolySec
*Solid Section, elset=PolySet, material=Polymer
,
** Section: PolySec
*Solid Section, elset=_PickedSet17, material=Polymer
,
** Section: PolySec
*Solid Section, elset=_PickedSet27, material=Polymer
,
*End Part
**  
**
** ASSEMBLY
**
*Assembly, name=Assembly
**  
*Instance, name=Polymer-1, part=Polymer
*End Instance
**  
*Instance, name=Battery-1, part=Battery
         10.,          10.,           0.
*End Instance
**  
*Instance, name=CF-1, part=CF
          0.,           0.,         -0.4
*End Instance
**  
*Instance, name=CF-2, part=CF
          0.,           0.,          5.4
*End Instance
**  
*Node
      1,          55.,          55.,    5.4000001
*Nset, nset=VerticalSupport, instance=CF-1
   3,   4,   7,   8,  62,  63,  64,  65,  66,  67,  68,  69,  70,  71,  72,  73
  74,  75,  76,  77,  78,  79,  80,  81,  82,  83,  84,  85,  86,  87,  88,  89
  90,  91,  92,  93,  94,  95,  96,  97, 170, 171, 172, 173, 174, 175, 176, 177
 178, 179, 180, 181, 182, 183, 184, 185, 186, 187, 188, 189, 190, 191, 192, 193
 194, 195, 196, 197, 198, 199, 200, 201, 202, 203, 204, 205
*Elset, elset=VerticalSupport, instance=CF-1
  630,  631,  632,  633,  634,  635,  636,  637,  638,  639,  640,  641,  642,  643,  644,  645
  646,  647,  648,  649,  650,  651,  652,  653,  654,  655,  656,  657,  658,  659,  660,  661
  662,  663,  664,  665,  666, 1370, 1371, 1372, 1373, 1374, 1375, 1376, 1377, 1378, 1379, 1380
 1381, 1382, 1383, 1384, 1385, 1386, 1387, 1388, 1389, 1390, 1391, 1392, 1393, 1394, 1395, 1396
 1397, 1398, 1399, 1400, 1401, 1402, 1403, 1404, 1405, 1406
*Nset, nset=XDirSupport, instance=CF-1
 3,
*Nset, nset=YDirSupport, instance=CF-1
 7,
*Nset, nset=rigid_loading_set, instance=CF-2
   1,   2,   5,   6,   9,  10,  11,  12,  13,  14,  15,  16,  17,  18,  19,  20
  21,  22,  23,  24,  25,  26,  27,  28,  29,  30,  31,  32,  33,  34,  35,  36
  37,  38,  39,  40,  41,  42,  43,  44, 115, 116, 117, 118, 119, 120, 121, 122
 123, 124, 125, 126, 127, 128, 129, 130, 131, 132, 133, 134, 135, 136, 137, 138
 139, 140, 141, 142, 143, 144, 145, 146, 147, 148, 149, 150, 151, 152, 835, 836
 837, 838, 839, 840, 841, 842, 843, 844, 845, 846, 847, 848, 849, 850, 851, 852
 853, 854, 855, 856, 857, 858, 859, 860, 861, 862, 863, 864, 865, 866, 867, 868
 869, 870
*Elset, elset=rigid_loading_set, instance=CF-2, generate
 667,  740,    1
*Nset, nset=_PickedSet14, internal
 1,
*Elset, elset=__PickedSurf15_SPOS, internal, instance=CF-2, generate
 667,  740,    1
*Surface, type=ELEMENT, name=_PickedSurf15, internal
__PickedSurf15_SPOS, SPOS
** Constraint: BatPoly-0
*Tie, name=BatPoly-0, adjust=no, position tolerance=1.
Battery-1.Battery-rivet-0, Polymer-1.Polymer-rivet-0
** Constraint: BatPoly-1
*Tie, name=BatPoly-1, adjust=no, position tolerance=1.
Battery-1.Battery-rivet-1, Polymer-1.Polymer-rivet-1
** Constraint: BatPoly-2
*Tie, name=BatPoly-2, adjust=no, position tolerance=1.
Battery-1.Battery-rivet-2, Polymer-1.Polymer-rivet-2
** Constraint: BatPoly-3
*Tie, name=BatPoly-3, adjust=no, position tolerance=1.
Battery-1.Battery-rivet-3, Polymer-1.Polymer-rivet-3
** Constraint: CF1Poly
*Tie, name=CF1Poly, adjust=no, position tolerance=1.
Polymer-1.PolyBot, CF-1.CFtop
** Constraint: CF1Poly-Rivet-0
*Tie, name=CF1Poly-Rivet-0, adjust=no, position tolerance=1.
Polymer-1.Polymer-rivet-bot-0, CF-1.CFtop
** Constraint: CF1Poly-Rivet-1
*Tie, name=CF1Poly-Rivet-1, adjust=no, position tolerance=1.
Polymer-1.Polymer-rivet-bot-1, CF-1.CFtop
** Constraint: CF1Poly-Rivet-2
*Tie, name=CF1Poly-Rivet-2, adjust=no, position tolerance=1.
Polymer-1.Polymer-rivet-bot-2, CF-1.CFtop
** Constraint: CF1Poly-Rivet-3
*Tie, name=CF1Poly-Rivet-3, adjust=no, position tolerance=1.
Polymer-1.Polymer-rivet-bot-3, CF-1.CFtop
** Constraint: CF2Poly
*Tie, name=CF2Poly, adjust=no, position tolerance=1.
Polymer-1.PolyTop, CF-2.CFbot
** Constraint: CF2Poly-Rivet-0
*Tie, name=CF2Poly-Rivet-0, adjust=no, position tolerance=1.
Polymer-1.Polymer-rivet-top-0, CF-2.CFbot
** Constraint: CF2Poly-Rivet-1
*Tie, name=CF2Poly-Rivet-1, adjust=no, position tolerance=1.
Polymer-1.Polymer-rivet-top-1, CF-2.CFbot
** Constraint: CF2Poly-Rivet-2
*Tie, name=CF2Poly-Rivet-2, adjust=no, position tolerance=1.
Polymer-1.Polymer-rivet-top-2, CF-2.CFbot
** Constraint: CF2Poly-Rivet-3
*Tie, name=CF2Poly-Rivet-3, adjust=no, position tolerance=1.
Polymer-1.Polymer-rivet-top-3, CF-2.CFbot
** Constraint: LoadingRigidBody
*Rigid Body, ref node=_PickedSet14, tie nset=rigid_loading_set
*End Assembly
** 
** MATERIALS
** 
*Material, name=BatOrtho
*Elastic, type=ENGINEERING CONSTANTS
1090., 109., 500., 0.15, 0.15, 0.15, 474., 474.
 474.,
*Material, name=CF_material
*Elastic, type=ENGINEERING CONSTANTS
30420.,  4023.,  4023.,   0.29,   0.29, 0.3928,  2081.,  2081.
  1440.,
*Material, name=Polymer
*Elastic
500., 0.3
** 
** INTERACTION PROPERTIES
** 
*Surface Interaction, name=NormCont
1.,
*Friction, slip tolerance=0.005
 0.3,
*Surface Behavior, pressure-overclosure=HARD
** 
** INTERACTIONS
** 
** Interaction: CF1Bat
*Contact Pair, interaction=NormCont, type=SURFACE TO SURFACE
Battery-1.BatBot, CF-1.CFtop
** Interaction: CF2Bat
*Contact Pair, interaction=NormCont, type=SURFACE TO SURFACE
Battery-1.BatTop, CF-2.CFbot
** ----------------------------------------------------------------
** 
** STEP: Loading
** 
*Step, name=Loading, nlgeom=NO
*Static
1., 1., 1e-05, 1.
** 
** BOUNDARY CONDITIONS
** 
** Name: VerticalSupport Type: Displacement/Rotation
*Boundary
VerticalSupport, 3, 3
** Name: XDirSupport Type: Displacement/Rotation
*Boundary
XDirSupport, 1, 1
** Name: YDirSupport Type: Displacement/Rotation
*Boundary
YDirSupport, 2, 2
** 
** LOADS
** 
** Name: Load-1   Type: Pressure
*Dsload
_PickedSurf15, P, 0.181818
** 
** OUTPUT REQUESTS
** 
*Restart, write, frequency=0
** 
** FIELD OUTPUT: F-Output-1
** 
*Output, field
*Node Output
U, UR, UT
*Element Output, directions=YES
EVOL, 
** 
** HISTORY OUTPUT: H-Output-1
** 
*Output, history, variable=PRESELECT
*End Step
