*Heading
** Job name: Job-35 Model name: Model-1
** Generated by: Abaqus/CAE 2019
*Preprint, echo=NO, model=NO, history=NO, contact=NO
**
** PARTS
**
*Part, name=Battery
*Node
      1,   62.0344353,    53.776268,           0.
      2,   60.0256462,   55.7850571,           0.
      3,   57.2815857,   56.5203247,           0.
      4,   54.5375252,   55.7850571,           0.
      5,   52.5287361,    53.776268,           0.
      6,   51.7934685,   51.0322075,           0.
      7,   52.5287361,    48.288147,           0.
      8,   54.5375252,   46.2793579,           0.
      9,   57.2815857,   45.5440903,           0.
     10,   60.0256462,   46.2793579,           0.
     11,   62.0344353,    48.288147,           0.
     12,   62.7697029,   51.0322075,           0.
     13,   10.4986134,   53.8031197,           0.
     14,   8.42604828,   55.3089256,           0.
     15,   5.86421537,   55.3089256,           0.
     16,   3.79164982,   53.8031197,           0.
     17,           3.,   51.3666725,           0.
     18,   3.79164982,   48.9302254,           0.
     19,   5.86421537,   47.4244194,           0.
     20,   8.42604828,   47.4244194,           0.
** ... 3655 like lines cut
*Element, type=C3D8R
   1,  135,  289,  206,  136, 1360, 1514, 1431, 1361
   2,  575,  533,  439,  440, 1800, 1758, 1664, 1665
   3,  195,  253,  362,  361, 1420, 1478, 1587, 1586
   4,  355,  108,  107,  294, 1580, 1333, 1332, 1519
   5,  973,   14,   13,  164, 2198, 1239, 1238, 1389
   6,  109,  295,  245,  110, 1334, 1520, 1470, 1335
   7, 1090,   26,   25,  174, 2315, 1251, 1250, 1399
   8,   27,   26, 1090,  171, 1252, 1251, 2315, 1396
   9,   21, 1097, 1100,  169, 1246, 2322, 2325, 1394
  10,  891,  900,  163, 1099, 2116, 2125, 1388, 2324
  11,  481, 1097,  168,  386, 1706, 2322, 1393, 1611
  12,   21,  169, 1099,   22, 1246, 1394, 2324, 1247
  13,  228,   71,   70,  227, 1453, 1296, 1295, 1452
  14,  320,  321,  438,  444, 1545, 1546, 1663, 1669
  15,  912,  182,   41,  180, 2137, 1407, 1266, 1405
  16,  445,  433,  318,  326, 1670, 1658, 1543, 1551
  17,  317,  330,  418,  429, 1542, 1555, 1643, 1654
  18,  149,  200,  199,  150, 1374, 1425, 1424, 1375
  19,  201,  148,  147,  202, 1426, 1373, 1372, 1427
  20,  296,  375,  270,  269, 1521, 1600, 1495, 1494
** ... 2274 like lines cut
*Nset, nset=Batset, generate
    1,  3675,     1
*Elset, elset=Batset, generate
    1,  2294,     1
*Elset, elset=_BatTop_S2, internal, generate
 1148,  2294,     1
*Surface, type=ELEMENT, name=BatTop
_BatTop_S2, S2
*Elset, elset=_BatBot_S1, internal, generate
    1,  1147,     1
*Surface, type=ELEMENT, name=BatBot
_BatBot_S1, S1
*Elset, elset=_Battery-rivet-0_S6, internal
   26, 1173
*Elset, elset=_Battery-rivet-0_S5, internal
   28,   32,   33,  172, 1175, 1179, 1180, 1319
*Elset, elset=_Battery-rivet-0_S3, internal
  128,  132,  168, 1275, 1279, 1315
*Elset, elset=_Battery-rivet-0_S4, internal
  170,  288, 1317, 1435
*Surface, type=ELEMENT, name=Battery-rivet-0
_Battery-rivet-0_S6, S6
_Battery-rivet-0_S5, S5
_Battery-rivet-0_S4, S4
_Battery-rivet-0_S3, S3
*Elset, elset=_Battery-rivet-1_S4, internal
    7,  159,  160, 1154, 1306, 1307
*Elset, elset=_Battery-rivet-1_S3, internal
    8,   24,   59,   63,  165, 1155, 1171, 1206, 1210, 1312
*Elset, elset=_Battery-rivet-1_S5, internal
   25,   53, 1172, 1200
*Surface, type=ELEMENT, name=Battery-rivet-1
_Battery-rivet-1_S4, S4
_Battery-rivet-1_S3, S3
_Battery-rivet-1_S5, S5
*Elset, elset=_Battery-rivet-2_S4, internal
    5,  145,  152, 1152, 1292, 1299
*Elset, elset=_Battery-rivet-2_S6, internal
   12,   38,   79,   83, 1159, 1185, 1226, 1230
*Elset, elset=_Battery-rivet-2_S5, internal
  144,  151,  236, 1291, 1298, 1383
*Surface, type=ELEMENT, name=Battery-rivet-2
_Battery-rivet-2_S4, S4
_Battery-rivet-2_S6, S6
_Battery-rivet-2_S5, S5
*Elset, elset=_Battery-rivet-3_S6, internal
   30, 1177
*Elset, elset=_Battery-rivet-3_S5, internal
   31,   34,  177, 1178, 1181, 1324
*Elset, elset=_Battery-rivet-3_S3, internal
   32,  101,  109, 1179, 1248, 1256
*Elset, elset=_Battery-rivet-3_S4, internal
  143,  175,  179,  180,  185, 1290, 1322, 1326, 1327, 1332
*Surface, type=ELEMENT, name=Battery-rivet-3
_Battery-rivet-3_S6, S6
_Battery-rivet-3_S5, S5
_Battery-rivet-3_S4, S4
_Battery-rivet-3_S3, S3
*Orientation, name=Ori-1
1., 0., 0., 0., 1., 0.
3, 0.
** Section: BatOrtho
*Solid Section, elset=Batset, orientation=Ori-1, material=BatOrtho
,
*End Part
**  
*Part, name=CF
*Node
      1,         52.5,           0.,           0.
      2,         52.5,         110.,           0.
      3,           0.,         110.,           0.
      4,           0.,           0.,           0.
      5,         57.5,           0.,           0.
      6,         57.5,         110.,           0.
      7,         110.,           0.,           0.
      8,         110.,         110.,           0.
      9,         52.5,   2.97297287,           0.
     10,         52.5,   5.94594574,           0.
     11,         52.5,   8.91891861,           0.
     12,         52.5,   11.8918915,           0.
     13,         52.5,   14.8648653,           0.
     14,         52.5,   17.8378372,           0.
     15,         52.5,   20.8108101,           0.
     16,         52.5,    23.783783,           0.
     17,         52.5,   26.7567558,           0.
     18,         52.5,   29.7297306,           0.
     19,         52.5,   32.7027016,           0.
     20,         52.5,   35.6756744,           0.
** ... 1462 like lines cut
*Element, type=S4R
  1,   1,   9, 223, 114
  2,   9,  10, 224, 223
  3,  10,  11, 225, 224
  4,  11,  12, 226, 225
  5,  12,  13, 227, 226
  6,  13,  14, 228, 227
  7,  14,  15, 229, 228
  8,  15,  16, 230, 229
  9,  16,  17, 231, 230
 10,  17,  18, 232, 231
 11,  18,  19, 233, 232
 12,  19,  20, 234, 233
 13,  20,  21, 235, 234
 14,  21,  22, 236, 235
 15,  22,  23, 237, 236
 16,  23,  24, 238, 237
 17,  24,  25, 239, 238
 18,  25,  26, 240, 239
 19,  26,  27, 241, 240
 20,  27,  28, 242, 241
** ... 1386 like lines cut
*Nset, nset=CF_set, generate
    1,  1482,     1
*Elset, elset=CF_set, generate
    1,  1406,     1
*Elset, elset=_CFtop_SPOS, internal, generate
    1,  1406,     1
*Surface, type=ELEMENT, name=CFtop
_CFtop_SPOS, SPOS
*Elset, elset=_CFbot_SNEG, internal, generate
    1,  1406,     1
*Surface, type=ELEMENT, name=CFbot
_CFbot_SNEG, SNEG
** Section: CF_sec
*Shell Section, elset=CF_set, composite
0.2, 3, CF_material, 0.
0.2, 3, CF_material, 90.
0.2, 3, CF_material, 90.
0.2, 3, CF_material, 0.
*End Part
**  
*Part, name=Polymer
*Node
      1,   21.2902641,   61.3666725,           0.
      2,   21.2902641,   61.3666725,           5.
      3,   71.5692902,   48.9671059,           0.
      4,   71.5692902,   48.9671059,           5.
      5,          10.,         100.,           0.
      6,          10.,          10.,           0.
      7,         100.,          10.,           0.
      8,         100.,         100.,           0.
      9,         110.,           0.,           0.
     10,           0.,           0.,           0.
     11,           0.,         110.,           0.
     12,         110.,         110.,           0.
     13,          10.,          10.,           5.
     14,          10.,         100.,           5.
     15,         100.,         100.,           5.
     16,         100.,          10.,           5.
     17,           0.,         110.,           5.
     18,           0.,           0.,           5.
     19,         110.,           0.,           5.
     20,         110.,         110.,           5.
** ... 2233 like lines cut
*Element, type=C3D8R
 1, 1813,  650,  649,  648,  629,   33,   32,   31
 2, 1813, 1817, 1814, 1815,  629,  633,  630,  631
 3, 1818, 1816, 1815, 1814,  634,  632,  631,  630
 4, 1815,  641,  650, 1813,  631,    1,   33,  629
 5, 1817, 1813,  648,  647,  633,  629,   31,   30
 6,  646, 1814, 1817,  647,   29,  630,  633,   30
 7, 1818, 1814,  646,  645,  634,  630,   29,   28
 8, 1816,  644,  643,  642,  632,   27,   26,   25
 9,  642,  641, 1815, 1816,   25,    1,  631,  632
10, 1818,  645,  644, 1816,  634,   28,   27,  632
11,  635,   34,   35,   36, 1813,  650,  649,  648
12,  635,  639,  636,  637, 1813, 1817, 1814, 1815
13,  640,  638,  637,  636, 1818, 1816, 1815, 1814
14,  637,    2,   34,  635, 1815,  641,  650, 1813
15,  639,  635,   36,   37, 1817, 1813,  648,  647
16,   38,  636,  639,   37,  646, 1814, 1817,  647
17,  640,  636,   38,   39, 1818, 1814,  646,  645
18,  638,   40,   41,   42, 1816,  644,  643,  642
19,   42,    2,  637,  638,  642,  641, 1815, 1816
20,  640,   39,   40,  638, 1818,  645,  644, 1816
** ... 1164 like lines cut
*Nset, nset=PolySet
    5,    6,    7,    8,    9,   10,   11,   12,   13,   14,   15,   16,   17,   18,   19,   20
   61,   62,   63,   64,   65,   66,   67,   68,   69,   70,   71,   72,   73,   74,   75,   76
   77,   78,   79,   80,   81,   82,   83,   84,   85,   86,   87,   88,   89,   90,   91,   92
   93,   94,   95,   96,   97,   98,   99,  100,  101,  102,  103,  104,  105,  106,  107,  108
  109,  110,  111,  112,  113,  114,  115,  116,  117,  118,  119,  120,  121,  122,  123,  124
  125,  126,  127,  128,  129,  130,  131,  132,  133,  134,  135,  136,  137,  138,  139,  140
  141,  142,  143,  144,  145,  146,  147,  148,  149,  150,  151,  152,  153,  154,  155,  156
  157,  158,  159,  160,  161,  162,  163,  164,  165,  166,  167,  168,  169,  170,  171,  172
  173,  174,  175,  176,  177,  178,  179,  180,  181,  182,  183,  184,  185,  186,  187,  188
  189,  190,  191,  192,  193,  194,  195,  196,  197,  198,  199,  200,  201,  202,  203,  204
  205,  206,  207,  208,  209,  210,  211,  212,  213,  214,  215,  216,  217,  218,  219,  220
  221,  222,  223,  224,  225,  226,  227,  228,  229,  230,  231,  232,  233,  234,  235,  236
  237,  238,  239,  240,  241,  242,  243,  244,  245,  246,  247,  248,  249,  250,  251,  252
  253,  254,  255,  256,  257,  258,  259,  260,  261,  262,  263,  264,  265,  266,  267,  268
  269,  270,  271,  272,  273,  274,  275,  276,  277,  278,  279,  280,  281,  282,  283,  284
  285,  286,  287,  288,  289,  290,  291,  292,  293,  294,  295,  296,  297,  298,  299,  300
  301,  302,  303,  304,  305,  306,  307,  308,  309,  310,  311,  312,  313,  314,  315,  316
  317,  318,  319,  320,  321,  322,  323,  324,  325,  326,  327,  328,  329,  330,  331,  332
  333,  334,  335,  336,  337,  338,  339,  340,  341,  342,  343,  344,  345,  346,  347,  348
  349,  350,  351,  352,  353,  354,  355,  356,  357,  358,  359,  360,  361,  362,  363,  364
** ... 106 like lines cut
*Elset, elset=PolySet, generate
   41,  1112,     1
*Nset, nset=_PickedSet12, internal
    3,    4,   43,   44,   45,   46,   47,   48,   49,   50,   51,   52,   53,   54,   55,   56
   57,   58,   59,   60,  651,  652,  653,  654,  655,  656,  657,  658,  659,  660,  661,  662
  663,  664,  665,  666,  667,  668,  669,  670,  671,  672, 1819, 1820, 1821, 1822, 1823, 1824
*Elset, elset=_PickedSet12, internal, generate
 21,  40,   1
*Nset, nset=_PickedSet17, internal
   21,   22,  589,  590,  591,  592,  593,  594,  595,  596,  597,  598,  599,  600,  601,  602
  603,  604,  605,  606, 1737, 1738, 1739, 1740, 1741, 1742, 1743, 1744, 1745, 1746, 1747, 1748
 1749, 1750, 1751, 1752, 1753, 1754, 1755, 1756, 1757, 1758, 2227, 2228, 2229, 2230, 2231, 2232
*Elset, elset=_PickedSet17, internal, generate
 1113,  1132,     1
*Nset, nset=_PickedSet22, internal
    1,    2,   25,   26,   27,   28,   29,   30,   31,   32,   33,   34,   35,   36,   37,   38
   39,   40,   41,   42,  629,  630,  631,  632,  633,  634,  635,  636,  637,  638,  639,  640
  641,  642,  643,  644,  645,  646,  647,  648,  649,  650, 1813, 1814, 1815, 1816, 1817, 1818
*Elset, elset=_PickedSet22, internal, generate
  1,  20,   1
*Nset, nset=_PickedSet27, internal
   23,   24,  607,  608,  609,  610,  611,  612,  613,  614,  615,  616,  617,  618,  619,  620
  621,  622,  623,  624,  625,  626,  627,  628, 1759, 1760, 1761, 1762, 1763, 1764, 1765, 1766
 1767, 1768, 1769, 1770, 1771, 1772, 1773, 1774, 1775, 1776, 1777, 1778, 1779, 1780, 1781, 1782
 1783, 1784, 1785, 1786, 1787, 1788, 1789, 1790, 1791, 1792, 1793, 1794, 1795, 1796, 1797, 1798
 1799, 1800, 1801, 1802, 1803, 1804, 1805, 1806, 1807, 1808, 1809, 1810, 1811, 1812, 2233, 2234
 2235, 2236, 2237, 2238, 2239, 2240, 2241, 2242, 2243, 2244, 2245, 2246, 2247, 2248, 2249, 2250
 2251, 2252, 2253
*Elset, elset=_PickedSet27, internal, generate
 1133,  1184,     1
*Elset, elset=_PolyTop_S2, internal, generate
  577,  1112,     1
*Surface, type=ELEMENT, name=PolyTop
_PolyTop_S2, S2
*Elset, elset=_PolyBot_S1, internal, generate
  41,  576,    1
*Surface, type=ELEMENT, name=PolyBot
_PolyBot_S1, S1
*Elset, elset=_Polymer-rivet-0_S5, internal
 21, 30, 31, 40
*Elset, elset=_Polymer-rivet-0_S3, internal
 23, 27, 29, 33, 37, 39
*Elset, elset=_Polymer-rivet-0_S6, internal
 23, 25, 26, 33, 35, 36
*Elset, elset=_Polymer-rivet-0_S4, internal
 28, 30, 38, 40
*Surface, type=ELEMENT, name=Polymer-rivet-0
_Polymer-rivet-0_S5, S5
_Polymer-rivet-0_S3, S3
_Polymer-rivet-0_S6, S6
_Polymer-rivet-0_S4, S4
*Elset, elset=_Polymer-rivet-top-0_S1, internal, generate
 31,  40,   1
*Surface, type=ELEMENT, name=Polymer-rivet-top-0
_Polymer-rivet-top-0_S1, S1
*Elset, elset=_Polymer-rivet-bot-0_S2, internal, generate
 21,  30,   1
*Surface, type=ELEMENT, name=Polymer-rivet-bot-0
_Polymer-rivet-bot-0_S2, S2
*Elset, elset=_Polymer-rivet-1_S4, internal
 1113, 1119, 1121, 1123, 1129, 1131
*Elset, elset=_Polymer-rivet-1_S5, internal
 1115, 1117, 1119, 1121, 1122, 1125, 1127, 1129, 1131, 1132
*Elset, elset=_Polymer-rivet-1_S6, internal
 1116, 1126
*Elset, elset=_Polymer-rivet-1_S3, internal
 1120, 1130
*Surface, type=ELEMENT, name=Polymer-rivet-1
_Polymer-rivet-1_S4, S4
_Polymer-rivet-1_S5, S5
_Polymer-rivet-1_S6, S6
_Polymer-rivet-1_S3, S3
*Elset, elset=_Polymer-rivet-top-1_S1, internal, generate
 1123,  1132,     1
*Surface, type=ELEMENT, name=Polymer-rivet-top-1
_Polymer-rivet-top-1_S1, S1
*Elset, elset=_Polymer-rivet-bot-1_S2, internal, generate
 1113,  1122,     1
*Surface, type=ELEMENT, name=Polymer-rivet-bot-1
_Polymer-rivet-bot-1_S2, S2
*Elset, elset=_Polymer-rivet-2_S4, internal
  1,  4,  8, 10, 11, 14, 18, 20
*Elset, elset=_Polymer-rivet-2_S5, internal
  1,  5,  7,  8, 11, 15, 17, 18
*Elset, elset=_Polymer-rivet-2_S6, internal
  6, 16
*Elset, elset=_Polymer-rivet-2_S3, internal
  9, 19
*Surface, type=ELEMENT, name=Polymer-rivet-2
_Polymer-rivet-2_S4, S4
_Polymer-rivet-2_S5, S5
_Polymer-rivet-2_S6, S6
_Polymer-rivet-2_S3, S3
*Elset, elset=_Polymer-rivet-top-2_S1, internal, generate
 11,  20,   1
*Surface, type=ELEMENT, name=Polymer-rivet-top-2
_Polymer-rivet-top-2_S1, S1
*Elset, elset=_Polymer-rivet-bot-2_S2, internal, generate
  1,  10,   1
*Surface, type=ELEMENT, name=Polymer-rivet-bot-2
_Polymer-rivet-bot-2_S2, S2
*Elset, elset=_Polymer-rivet-3_S6, internal
 1133, 1145, 1146, 1153, 1159, 1171, 1172, 1179
*Elset, elset=_Polymer-rivet-3_S3, internal
 1134, 1136, 1144, 1148, 1150, 1160, 1162, 1170, 1174, 1176
*Elset, elset=_Polymer-rivet-3_S5, internal
 1141, 1149, 1151, 1167, 1175, 1177
*Surface, type=ELEMENT, name=Polymer-rivet-3
_Polymer-rivet-3_S6, S6
_Polymer-rivet-3_S3, S3
_Polymer-rivet-3_S5, S5
*Elset, elset=_Polymer-rivet-top-3_S1, internal, generate
 1159,  1184,     1
*Surface, type=ELEMENT, name=Polymer-rivet-top-3
_Polymer-rivet-top-3_S1, S1
*Elset, elset=_Polymer-rivet-bot-3_S2, internal, generate
 1133,  1158,     1
*Surface, type=ELEMENT, name=Polymer-rivet-bot-3
_Polymer-rivet-bot-3_S2, S2
** Section: PolySec
*Solid Section, elset=_PickedSet22, material=Polymer
,
** Section: PolySec
*Solid Section, elset=_PickedSet12, material=Polymer
,
** Section: PolySec
*Solid Section, elset=PolySet, material=Polymer
,
** Section: PolySec
*Solid Section, elset=_PickedSet17, material=Polymer
,
** Section: PolySec
*Solid Section, elset=_PickedSet27, material=Polymer
,
*End Part
**  
**
** ASSEMBLY
**
*Assembly, name=Assembly
**  
*Instance, name=Polymer-1, part=Polymer
*End Instance
**  
*Instance, name=Battery-1, part=Battery
         10.,          10.,           0.
*End Instance
**  
*Instance, name=CF-1, part=CF
          0.,           0.,         -0.4
*End Instance
**  
*Instance, name=CF-2, part=CF
          0.,           0.,          5.4
*End Instance
**  
*Node
      1,          55.,          55.,    5.4000001
*Nset, nset=VerticalSupport, instance=CF-1
   3,   4,   7,   8,  62,  63,  64,  65,  66,  67,  68,  69,  70,  71,  72,  73
  74,  75,  76,  77,  78,  79,  80,  81,  82,  83,  84,  85,  86,  87,  88,  89
  90,  91,  92,  93,  94,  95,  96,  97, 170, 171, 172, 173, 174, 175, 176, 177
 178, 179, 180, 181, 182, 183, 184, 185, 186, 187, 188, 189, 190, 191, 192, 193
 194, 195, 196, 197, 198, 199, 200, 201, 202, 203, 204, 205
*Elset, elset=VerticalSupport, instance=CF-1
  630,  631,  632,  633,  634,  635,  636,  637,  638,  639,  640,  641,  642,  643,  644,  645
  646,  647,  648,  649,  650,  651,  652,  653,  654,  655,  656,  657,  658,  659,  660,  661
  662,  663,  664,  665,  666, 1370, 1371, 1372, 1373, 1374, 1375, 1376, 1377, 1378, 1379, 1380
 1381, 1382, 1383, 1384, 1385, 1386, 1387, 1388, 1389, 1390, 1391, 1392, 1393, 1394, 1395, 1396
 1397, 1398, 1399, 1400, 1401, 1402, 1403, 1404, 1405, 1406
*Nset, nset=XDirSupport, instance=CF-1
 3,
*Nset, nset=YDirSupport, instance=CF-1
 7,
*Nset, nset=rigid_loading_set, instance=CF-2
   1,   2,   5,   6,   9,  10,  11,  12,  13,  14,  15,  16,  17,  18,  19,  20
  21,  22,  23,  24,  25,  26,  27,  28,  29,  30,  31,  32,  33,  34,  35,  36
  37,  38,  39,  40,  41,  42,  43,  44, 115, 116, 117, 118, 119, 120, 121, 122
 123, 124, 125, 126, 127, 128, 129, 130, 131, 132, 133, 134, 135, 136, 137, 138
 139, 140, 141, 142, 143, 144, 145, 146, 147, 148, 149, 150, 151, 152, 835, 836
 837, 838, 839, 840, 841, 842, 843, 844, 845, 846, 847, 848, 849, 850, 851, 852
 853, 854, 855, 856, 857, 858, 859, 860, 861, 862, 863, 864, 865, 866, 867, 868
 869, 870
*Elset, elset=rigid_loading_set, instance=CF-2, generate
 667,  740,    1
*Nset, nset=_PickedSet14, internal
 1,
*Elset, elset=__PickedSurf15_SPOS, internal, instance=CF-2, generate
 667,  740,    1
*Surface, type=ELEMENT, name=_PickedSurf15, internal
__PickedSurf15_SPOS, SPOS
** Constraint: BatPoly-0
*Tie, name=BatPoly-0, adjust=no, position tolerance=1.
Battery-1.Battery-rivet-0, Polymer-1.Polymer-rivet-0
** Constraint: BatPoly-1
*Tie, name=BatPoly-1, adjust=no, position tolerance=1.
Battery-1.Battery-rivet-1, Polymer-1.Polymer-rivet-1
** Constraint: BatPoly-2
*Tie, name=BatPoly-2, adjust=no, position tolerance=1.
Battery-1.Battery-rivet-2, Polymer-1.Polymer-rivet-2
** Constraint: BatPoly-3
*Tie, name=BatPoly-3, adjust=no, position tolerance=1.
Battery-1.Battery-rivet-3, Polymer-1.Polymer-rivet-3
** Constraint: CF1Poly
*Tie, name=CF1Poly, adjust=no, position tolerance=1.
Polymer-1.PolyBot, CF-1.CFtop
** Constraint: CF1Poly-Rivet-0
*Tie, name=CF1Poly-Rivet-0, adjust=no, position tolerance=1.
Polymer-1.Polymer-rivet-bot-0, CF-1.CFtop
** Constraint: CF1Poly-Rivet-1
*Tie, name=CF1Poly-Rivet-1, adjust=no, position tolerance=1.
Polymer-1.Polymer-rivet-bot-1, CF-1.CFtop
** Constraint: CF1Poly-Rivet-2
*Tie, name=CF1Poly-Rivet-2, adjust=no, position tolerance=1.
Polymer-1.Polymer-rivet-bot-2, CF-1.CFtop
** Constraint: CF1Poly-Rivet-3
*Tie, name=CF1Poly-Rivet-3, adjust=no, position tolerance=1.
Polymer-1.Polymer-rivet-bot-3, CF-1.CFtop
** Constraint: CF2Poly
*Tie, name=CF2Poly, adjust=no, position tolerance=1.
Polymer-1.PolyTop, CF-2.CFbot
** Constraint: CF2Poly-Rivet-0
*Tie, name=CF2Poly-Rivet-0, adjust=no, position tolerance=1.
Polymer-1.Polymer-rivet-top-0, CF-2.CFbot
** Constraint: CF2Poly-Rivet-1
*Tie, name=CF2Poly-Rivet-1, adjust=no, position tolerance=1.
Polymer-1.Polymer-rivet-top-1, CF-2.CFbot
** Constraint: CF2Poly-Rivet-2
*Tie, name=CF2Poly-Rivet-2, adjust=no, position tolerance=1.
Polymer-1.Polymer-rivet-top-2, CF-2.CFbot
** Constraint: CF2Poly-Rivet-3
*Tie, name=CF2Poly-Rivet-3, adjust=no, position tolerance=1.
Polymer-1.Polymer-rivet-top-3, CF-2.CFbot
** Constraint: LoadingRigidBody
*Rigid Body, ref node=_PickedSet14, tie nset=rigid_loading_set
*End Assembly
** 
** MATERIALS
** 
*Material, name=BatOrtho
*Elastic, type=ENGINEERING CONSTANTS
1090., 109., 500., 0.15, 0.15, 0.15, 474., 474.
 474.,
*Material, name=CF_material
*Elastic, type=ENGINEERING CONSTANTS
30420.,  4023.,  4023.,   0.29,   0.29, 0.3928,  2081.,  2081.
  1440.,
*Material, name=Polymer
*Elastic
500., 0.3
** 
** INTERACTION PROPERTIES
** 
*Surface Interaction, name=NormCont
1.,
*Friction, slip tolerance=0.005
 0.3,
*Surface Behavior, pressure-overclosure=HARD
** 
** INTERACTIONS
** 
** Interaction: CF1Bat
*Contact Pair, interaction=NormCont, type=SURFACE TO SURFACE
Battery-1.BatBot, CF-1.CFtop
** Interaction: CF2Bat
*Contact Pair, interaction=NormCont, type=SURFACE TO SURFACE
Battery-1.BatTop, CF-2.CFbot
** ----------------------------------------------------------------
** 
** STEP: Loading
** 
*Step, name=Loading, nlgeom=NO
*Static
1., 1., 1e-05, 1.
** 
** BOUNDARY CONDITIONS
** 
** Name: VerticalSupport Type: Displacement/Rotation
*Boundary
VerticalSupport, 3, 3
** Name: XDirSupport Type: Displacement/Rotation
*Boundary
XDirSupport, 1, 1
** Name: YDirSupport Type: Displacement/Rotation
*Boundary
YDirSupport, 2, 2
** 
** LOADS
** 
** Name: Load-1   Type: Pressure
*Dsload
_PickedSurf15, P, 0.181818
** 
** OUTPUT REQUESTS
** 
*Restart, write, frequency=0
** 
** FIELD OUTPUT: F-Output-1
** 
*Output, field
*Node Output
U, UR, UT
*Element Output, directions=YES
EVOL, 
** 
** HISTORY OUTPUT: H-Output-1
** 
*Output, history, variable=PRESELECT
*End Step
