*Heading
** Job name: Job-12 Model name: Model-1
** Generated by: Abaqus/CAE 2019
*Preprint, echo=NO, model=NO, history=NO, contact=NO
**
** PARTS
**
*Part, name=Battery
*Node
      1,   86.1213226,   8.12132072,           0.
      2,          84.,           9.,           0.
      3,   81.8786774,   8.12132072,           0.
      4,          81.,           6.,           0.
      5,   81.8786774,   3.87867975,           0.
      6,          84.,           3.,           0.
      7,   86.1213226,   3.87867975,           0.
      8,          87.,           6.,           0.
      9,   32.1175346,   83.3261948,           0.
     10,   30.3168354,    85.584198,           0.
     11,   27.7147503,   86.8372955,           0.
     12,   22.2245693,    85.584198,           0.
     13,   20.4238701,   83.3261948,           0.
     14,   19.7812099,   80.5105057,           0.
     15,   20.4238701,   77.6948242,           0.
     16,   22.2245693,   75.4368134,           0.
     17,   24.8266544,   74.1837158,           0.
     18,   30.3168354,   75.4368134,           0.
     19,   32.1175346,   77.6948242,           0.
     20,   32.7601967,   80.5105057,           0.
** ... 3583 like lines cut
*Element, type=C3D8R
   1,    8,  179,  176,  175, 1209, 1380, 1377, 1376
   2,   61,  179, 1067, 1084, 1262, 1380, 2268, 2285
   3,  371,  269,  258,  346, 1572, 1470, 1459, 1547
   4,  350,  299,  264,  265, 1551, 1500, 1465, 1466
   5,  300,  318,  228,  260, 1501, 1519, 1429, 1461
   6,  137,  136,  301,  257, 1338, 1337, 1502, 1458
   7,  302,  301,  136,  135, 1503, 1502, 1337, 1336
   8,  132,  131,  256,  292, 1333, 1332, 1457, 1493
   9,  569,  256,  131,  130, 1770, 1457, 1332, 1331
  10,  210, 1071,  569, 1072, 1411, 2272, 1770, 2273
  11,  126,   51,   11,  127, 1327, 1252, 1212, 1328
  12,  297,  253,  303,  372, 1498, 1454, 1504, 1573
  13,  120,  212,  211,  121, 1321, 1413, 1412, 1322
  14,  303,  253,  252,  304, 1504, 1454, 1453, 1505
  15,  404,  405,  341,  340, 1605, 1606, 1542, 1541
  16,  338,  105,  104,  296, 1539, 1306, 1305, 1497
  17, 1093,  339,  244,  214, 2294, 1540, 1445, 1415
  18,  734,  675,  680,  733, 1935, 1876, 1881, 1934
  19,  271,  157,  156,  215, 1472, 1358, 1357, 1416
  20,  216,  233,   73,   72, 1417, 1434, 1274, 1273
** ... 2212 like lines cut
*Nset, nset=Batset, generate
    1,  3603,     1
*Elset, elset=Batset, generate
    1,  2232,     1
*Elset, elset=_BatTop_S2, internal, generate
 1117,  2232,     1
*Surface, type=ELEMENT, name=BatTop
_BatTop_S2, S2
*Elset, elset=_BatBot_S1, internal, generate
    1,  1116,     1
*Surface, type=ELEMENT, name=BatBot
_BatBot_S1, S1
*Elset, elset=_Battery-rivet-0_S3, internal
   24,   42,  173, 1140, 1158, 1289
*Elset, elset=_Battery-rivet-0_S6, internal
   25,   26,   47,   53,   54,   82,   84,   89,  163, 1141, 1142, 1163, 1169, 1170, 1198, 1200
 1205, 1279
*Elset, elset=_Battery-rivet-0_S4, internal
   32,   55,  161,  171,  172, 1148, 1171, 1277, 1287, 1288
*Elset, elset=_Battery-rivet-0_S5, internal
   43,   57,   60, 1159, 1173, 1176
*Surface, type=ELEMENT, name=Battery-rivet-0
_Battery-rivet-0_S3, S3
_Battery-rivet-0_S6, S6
_Battery-rivet-0_S4, S4
_Battery-rivet-0_S5, S5
*Elset, elset=_Battery-rivet-1_S3, internal
   23,   69, 1139, 1185
*Elset, elset=_Battery-rivet-1_S4, internal
   26,   36,   47,  191,  194, 1142, 1152, 1163, 1307, 1310
*Elset, elset=_Battery-rivet-1_S5, internal
   27,  265, 1143, 1381
*Elset, elset=_Battery-rivet-1_S6, internal
   75,   81,  192,  193, 1085, 1191, 1197, 1308, 1309, 2201
*Surface, type=ELEMENT, name=Battery-rivet-1
_Battery-rivet-1_S3, S3
_Battery-rivet-1_S4, S4
_Battery-rivet-1_S6, S6
_Battery-rivet-1_S5, S5
*Elset, elset=_Battery-rivet-2_S4, internal
   11,  108,  165,  178, 1127, 1224, 1281, 1294
*Elset, elset=_Battery-rivet-2_S5, internal
   93,   99,  106,  175,  180,  181,  184,  197, 1209, 1215, 1222, 1291, 1296, 1297, 1300, 1313
*Elset, elset=_Battery-rivet-2_S6, internal
  112,  131, 1228, 1247
*Surface, type=ELEMENT, name=Battery-rivet-2
_Battery-rivet-2_S4, S4
_Battery-rivet-2_S5, S5
_Battery-rivet-2_S6, S6
*Elset, elset=_Battery-rivet-3_S3, internal
  144,  156, 1260, 1272
*Elset, elset=_Battery-rivet-3_S4, internal
  145, 1261
*Elset, elset=_Battery-rivet-3_S5, internal
  147,  149,  152,  154,  155, 1263, 1265, 1268, 1270, 1271
*Surface, type=ELEMENT, name=Battery-rivet-3
_Battery-rivet-3_S3, S3
_Battery-rivet-3_S4, S4
_Battery-rivet-3_S5, S5
*Orientation, name=Ori-1
1., 0., 0., 0., 1., 0.
3, 0.
** Section: BatOrtho
*Solid Section, elset=Batset, orientation=Ori-1, material=BatOrtho
,
*End Part
**  
*Part, name=CF
*Node
      1,         52.5,           0.,           0.
      2,         52.5,         110.,           0.
      3,           0.,         110.,           0.
      4,           0.,           0.,           0.
      5,         57.5,           0.,           0.
      6,         57.5,         110.,           0.
      7,         110.,           0.,           0.
      8,         110.,         110.,           0.
      9,         52.5,   2.97297287,           0.
     10,         52.5,   5.94594574,           0.
     11,         52.5,   8.91891861,           0.
     12,         52.5,   11.8918915,           0.
     13,         52.5,   14.8648653,           0.
     14,         52.5,   17.8378372,           0.
     15,         52.5,   20.8108101,           0.
     16,         52.5,    23.783783,           0.
     17,         52.5,   26.7567558,           0.
     18,         52.5,   29.7297306,           0.
     19,         52.5,   32.7027016,           0.
     20,         52.5,   35.6756744,           0.
** ... 1462 like lines cut
*Element, type=S4R
  1,   1,   9, 223, 114
  2,   9,  10, 224, 223
  3,  10,  11, 225, 224
  4,  11,  12, 226, 225
  5,  12,  13, 227, 226
  6,  13,  14, 228, 227
  7,  14,  15, 229, 228
  8,  15,  16, 230, 229
  9,  16,  17, 231, 230
 10,  17,  18, 232, 231
 11,  18,  19, 233, 232
 12,  19,  20, 234, 233
 13,  20,  21, 235, 234
 14,  21,  22, 236, 235
 15,  22,  23, 237, 236
 16,  23,  24, 238, 237
 17,  24,  25, 239, 238
 18,  25,  26, 240, 239
 19,  26,  27, 241, 240
 20,  27,  28, 242, 241
** ... 1386 like lines cut
*Nset, nset=CF_set, generate
    1,  1482,     1
*Elset, elset=CF_set, generate
    1,  1406,     1
*Elset, elset=_CFtop_SPOS, internal, generate
    1,  1406,     1
*Surface, type=ELEMENT, name=CFtop
_CFtop_SPOS, SPOS
*Elset, elset=_CFbot_SNEG, internal, generate
    1,  1406,     1
*Surface, type=ELEMENT, name=CFbot
_CFbot_SNEG, SNEG
** Section: CF_sec
*Shell Section, elset=CF_set, composite
0.2, 3, CF_material, 0.
0.2, 3, CF_material, 90.
0.2, 3, CF_material, 90.
0.2, 3, CF_material, 0.
*End Part
**  
*Part, name=Polymer
*Node
      1,   42.7601967,   90.5105057,           0.
      2,   42.7601967,   90.5105057,           5.
      3,   31.0417213,    35.856163,           0.
      4,   31.0417213,    35.856163,           5.
      5,          10.,         100.,           0.
      6,          10.,          10.,           0.
      7,         100.,          10.,           0.
      8,         100.,         100.,           0.
      9,         110.,           0.,           0.
     10,           0.,           0.,           0.
     11,           0.,         110.,           0.
     12,         110.,         110.,           0.
     13,          10.,          10.,           5.
     14,          10.,         100.,           5.
     15,         100.,         100.,           5.
     16,         100.,          10.,           5.
     17,           0.,         110.,           5.
     18,           0.,           0.,           5.
     19,         110.,           0.,           5.
     20,         110.,         110.,           5.
** ... 2401 like lines cut
*Element, type=C3D8R
 1, 1950, 1939,  706,  705,  668,  657,   37,   36
 2, 1945,  704,  703, 1956,  663,   35,   34,  674
 3,  702,  701, 1951, 1940,   33,   32,  669,  658
 4,  699, 1942, 1941,  700,   30,  660,  659,   31
 5, 1956, 1940, 1946, 1947,  674,  658,  664,  665
 6, 1947, 1946, 1952, 1944,  665,  664,  670,  662
 7,  694,  693, 1949, 1943,   25,    1,  667,  661
 8, 1949, 1948, 1955, 1943,  667,  666,  673,  661
 9, 1947, 1955, 1948, 1956,  665,  673,  666,  674
10,  706, 1939, 1949,  693,   37,  657,  667,    1
11,  701,  700, 1941, 1951,   32,   31,  659,  669
12, 1942,  699,  698, 1952,  660,   30,   29,  670
13, 1944,  697,  696, 1953,  662,   28,   27,  671
14,  694, 1943, 1954,  695,   25,  661,  672,   26
15, 1953,  696,  695, 1954,  671,   27,   26,  672
16, 1948, 1950, 1945, 1956,  666,  668,  663,  674
17, 1956,  703,  702, 1940,  674,   34,   33,  658
18, 1942, 1952, 1946, 1941,  660,  670,  664,  659
19, 1955, 1947, 1944, 1953,  673,  665,  662,  671
20, 1939, 1950, 1948, 1949,  657,  668,  666,  667
** ... 1262 like lines cut
*Nset, nset=PolySet
    5,    6,    7,    8,    9,   10,   11,   12,   13,   14,   15,   16,   17,   18,   19,   20
   89,   90,   91,   92,   93,   94,   95,   96,   97,   98,   99,  100,  101,  102,  103,  104
  105,  106,  107,  108,  109,  110,  111,  112,  113,  114,  115,  116,  117,  118,  119,  120
  121,  122,  123,  124,  125,  126,  127,  128,  129,  130,  131,  132,  133,  134,  135,  136
  137,  138,  139,  140,  141,  142,  143,  144,  145,  146,  147,  148,  149,  150,  151,  152
  153,  154,  155,  156,  157,  158,  159,  160,  161,  162,  163,  164,  165,  166,  167,  168
  169,  170,  171,  172,  173,  174,  175,  176,  177,  178,  179,  180,  181,  182,  183,  184
  185,  186,  187,  188,  189,  190,  191,  192,  193,  194,  195,  196,  197,  198,  199,  200
  201,  202,  203,  204,  205,  206,  207,  208,  209,  210,  211,  212,  213,  214,  215,  216
  217,  218,  219,  220,  221,  222,  223,  224,  225,  226,  227,  228,  229,  230,  231,  232
  233,  234,  235,  236,  237,  238,  239,  240,  241,  242,  243,  244,  245,  246,  247,  248
  249,  250,  251,  252,  253,  254,  255,  256,  257,  258,  259,  260,  261,  262,  263,  264
  265,  266,  267,  268,  269,  270,  271,  272,  273,  274,  275,  276,  277,  278,  279,  280
  281,  282,  283,  284,  285,  286,  287,  288,  289,  290,  291,  292,  293,  294,  295,  296
  297,  298,  299,  300,  301,  302,  303,  304,  305,  306,  307,  308,  309,  310,  311,  312
  313,  314,  315,  316,  317,  318,  319,  320,  321,  322,  323,  324,  325,  326,  327,  328
  329,  330,  331,  332,  333,  334,  335,  336,  337,  338,  339,  340,  341,  342,  343,  344
  345,  346,  347,  348,  349,  350,  351,  352,  353,  354,  355,  356,  357,  358,  359,  360
  361,  362,  363,  364,  365,  366,  367,  368,  369,  370,  371,  372,  373,  374,  375,  376
  377,  378,  379,  380,  381,  382,  383,  384,  385,  386,  387,  388,  389,  390,  391,  392
** ... 106 like lines cut
*Elset, elset=PolySet, generate
  143,  1214,     1
*Nset, nset=_PickedSet12, internal
    3,    4,   51,   52,   53,   54,   55,   56,   57,   58,   59,   60,   61,   62,   63,   64
   65,   66,   67,   68,   69,   70,   71,   72,   73,   74,   75,   76,   77,   78,   79,   80
   81,   82,   83,   84,   85,   86,   87,   88,  707,  708,  709,  710,  711,  712,  713,  714
  715,  716,  717,  718,  719,  720,  721,  722,  723,  724,  725,  726,  727,  728,  729,  730
  731,  732,  733,  734,  735,  736,  737,  738,  739,  740,  741,  742,  743,  744,  745,  746
  747,  748,  749,  750,  751,  752,  753,  754,  755,  756,  757,  758,  759,  760,  761,  762
  763,  764,  765,  766,  767,  768,  769,  770,  771,  772,  773,  774,  775,  776,  777,  778
  779,  780,  781,  782,  783,  784,  785,  786,  787,  788,  789,  790,  791,  792,  793,  794
  795,  796,  797,  798,  799,  800,  801,  802, 1957, 1958, 1959, 1960, 1961, 1962, 1963, 1964
 1965, 1966, 1967, 1968, 1969, 1970, 1971, 1972, 1973, 1974, 1975, 1976, 1977, 1978, 1979, 1980
 1981, 1982, 1983, 1984, 1985, 1986, 1987, 1988, 1989, 1990, 1991, 1992, 1993, 1994
*Elset, elset=_PickedSet12, internal, generate
  49,  142,    1
*Nset, nset=_PickedSet17, internal
   21,   22,  617,  618,  619,  620,  621,  622,  623,  624,  625,  626,  627,  628,  629,  630
  631,  632,  633,  634,  635,  636,  637,  638,  639,  640,  641,  642, 1867, 1868, 1869, 1870
 1871, 1872, 1873, 1874, 1875, 1876, 1877, 1878, 1879, 1880, 1881, 1882, 1883, 1884, 1885, 1886
 1887, 1888, 1889, 1890, 1891, 1892, 1893, 1894, 1895, 1896, 1897, 1898, 1899, 1900, 1901, 1902
 1903, 1904, 1905, 1906, 1907, 1908, 1909, 1910, 1911, 1912, 1913, 1914, 1915, 1916, 1917, 1918
 1919, 1920, 1921, 1922, 1923, 1924, 1925, 1926, 1927, 1928, 2397, 2398, 2399, 2400, 2401, 2402
 2403, 2404, 2405, 2406, 2407, 2408, 2409, 2410, 2411, 2412, 2413, 2414, 2415, 2416, 2417, 2418
 2419, 2420
*Elset, elset=_PickedSet17, internal, generate
 1215,  1274,     1
*Nset, nset=_PickedSet22, internal
    1,    2,   25,   26,   27,   28,   29,   30,   31,   32,   33,   34,   35,   36,   37,   38
   39,   40,   41,   42,   43,   44,   45,   46,   47,   48,   49,   50,  657,  658,  659,  660
  661,  662,  663,  664,  665,  666,  667,  668,  669,  670,  671,  672,  673,  674,  675,  676
  677,  678,  679,  680,  681,  682,  683,  684,  685,  686,  687,  688,  689,  690,  691,  692
  693,  694,  695,  696,  697,  698,  699,  700,  701,  702,  703,  704,  705,  706, 1939, 1940
 1941, 1942, 1943, 1944, 1945, 1946, 1947, 1948, 1949, 1950, 1951, 1952, 1953, 1954, 1955, 1956
*Elset, elset=_PickedSet22, internal, generate
  1,  48,   1
*Nset, nset=_PickedSet27, internal
   23,   24,  643,  644,  645,  646,  647,  648,  649,  650,  651,  652,  653,  654,  655,  656
 1929, 1930, 1931, 1932, 1933, 1934, 1935, 1936, 1937, 1938, 2421
*Elset, elset=_PickedSet27, internal, generate
 1275,  1282,     1
*Elset, elset=_PolyTop_S2, internal, generate
  679,  1214,     1
*Surface, type=ELEMENT, name=PolyTop
_PolyTop_S2, S2
*Elset, elset=_PolyBot_S1, internal, generate
 143,  678,    1
*Surface, type=ELEMENT, name=PolyBot
_PolyBot_S1, S1
*Elset, elset=_Polymer-rivet-0_S3, internal
  49,  57,  67,  74,  96, 104, 114, 121
*Elset, elset=_Polymer-rivet-0_S4, internal
  50,  62,  66,  70,  72,  73,  83,  91,  97, 109, 113, 117, 119, 120, 130, 138
*Elset, elset=_Polymer-rivet-0_S6, internal
  52,  64,  69,  75,  82,  99, 111, 116, 122, 129
*Elset, elset=_Polymer-rivet-0_S5, internal
  63,  71,  76, 110, 118, 123
*Surface, type=ELEMENT, name=Polymer-rivet-0
_Polymer-rivet-0_S3, S3
_Polymer-rivet-0_S4, S4
_Polymer-rivet-0_S6, S6
_Polymer-rivet-0_S5, S5
*Elset, elset=_Polymer-rivet-top-0_S1, internal, generate
  96,  142,    1
*Surface, type=ELEMENT, name=Polymer-rivet-top-0
_Polymer-rivet-top-0_S1, S1
*Elset, elset=_Polymer-rivet-bot-0_S2, internal, generate
 49,  95,   1
*Surface, type=ELEMENT, name=Polymer-rivet-bot-0
_Polymer-rivet-bot-0_S2, S2
*Elset, elset=_Polymer-rivet-1_S5, internal
 1215, 1219, 1224, 1225, 1240, 1242, 1245, 1249, 1254, 1255, 1270, 1272
*Elset, elset=_Polymer-rivet-1_S3, internal
 1216, 1229, 1230, 1238, 1239, 1243, 1246, 1259, 1260, 1268, 1269, 1273
*Elset, elset=_Polymer-rivet-1_S6, internal
 1218, 1232, 1248, 1262
*Surface, type=ELEMENT, name=Polymer-rivet-1
_Polymer-rivet-1_S5, S5
_Polymer-rivet-1_S3, S3
_Polymer-rivet-1_S6, S6
*Elset, elset=_Polymer-rivet-top-1_S1, internal, generate
 1245,  1274,     1
*Surface, type=ELEMENT, name=Polymer-rivet-top-1
_Polymer-rivet-top-1_S1, S1
*Elset, elset=_Polymer-rivet-bot-1_S2, internal, generate
 1215,  1244,     1
*Surface, type=ELEMENT, name=Polymer-rivet-bot-1
_Polymer-rivet-bot-1_S2, S2
*Elset, elset=_Polymer-rivet-2_S5, internal
  1, 25
*Elset, elset=_Polymer-rivet-2_S4, internal
  2, 12, 13, 15, 17, 21, 23, 26, 36, 37, 39, 41, 45, 47
*Elset, elset=_Polymer-rivet-2_S3, internal
  3,  7, 11, 27, 31, 35
*Elset, elset=_Polymer-rivet-2_S6, internal
  4, 10, 14, 28, 34, 38
*Surface, type=ELEMENT, name=Polymer-rivet-2
_Polymer-rivet-2_S5, S5
_Polymer-rivet-2_S4, S4
_Polymer-rivet-2_S6, S6
_Polymer-rivet-2_S3, S3
*Elset, elset=_Polymer-rivet-top-2_S1, internal, generate
 25,  48,   1
*Surface, type=ELEMENT, name=Polymer-rivet-top-2
_Polymer-rivet-top-2_S1, S1
*Elset, elset=_Polymer-rivet-bot-2_S2, internal, generate
  1,  24,   1
*Surface, type=ELEMENT, name=Polymer-rivet-bot-2
_Polymer-rivet-bot-2_S2, S2
*Elset, elset=_Polymer-rivet-3_S4, internal
 1275, 1278, 1279, 1282
*Elset, elset=_Polymer-rivet-3_S5, internal
 1275, 1278, 1279, 1282
*Elset, elset=_Polymer-rivet-3_S3, internal
 1276, 1277, 1280, 1281
*Elset, elset=_Polymer-rivet-3_S6, internal
 1276, 1277, 1280, 1281
*Surface, type=ELEMENT, name=Polymer-rivet-3
_Polymer-rivet-3_S4, S4
_Polymer-rivet-3_S5, S5
_Polymer-rivet-3_S6, S6
_Polymer-rivet-3_S3, S3
*Elset, elset=_Polymer-rivet-top-3_S1, internal, generate
 1279,  1282,     1
*Surface, type=ELEMENT, name=Polymer-rivet-top-3
_Polymer-rivet-top-3_S1, S1
*Elset, elset=_Polymer-rivet-bot-3_S2, internal, generate
 1275,  1278,     1
*Surface, type=ELEMENT, name=Polymer-rivet-bot-3
_Polymer-rivet-bot-3_S2, S2
** Section: PolySec
*Solid Section, elset=_PickedSet22, material=Polymer
,
** Section: PolySec
*Solid Section, elset=_PickedSet12, material=Polymer
,
** Section: PolySec
*Solid Section, elset=PolySet, material=Polymer
,
** Section: PolySec
*Solid Section, elset=_PickedSet17, material=Polymer
,
** Section: PolySec
*Solid Section, elset=_PickedSet27, material=Polymer
,
*End Part
**  
**
** ASSEMBLY
**
*Assembly, name=Assembly
**  
*Instance, name=Polymer-1, part=Polymer
*End Instance
**  
*Instance, name=Battery-1, part=Battery
         10.,          10.,           0.
*End Instance
**  
*Instance, name=CF-1, part=CF
          0.,           0.,         -0.4
*End Instance
**  
*Instance, name=CF-2, part=CF
          0.,           0.,          5.4
*End Instance
**  
*Node
      1,          55.,          55.,    5.4000001
*Nset, nset=VerticalSupport, instance=CF-1
   3,   4,   7,   8,  62,  63,  64,  65,  66,  67,  68,  69,  70,  71,  72,  73
  74,  75,  76,  77,  78,  79,  80,  81,  82,  83,  84,  85,  86,  87,  88,  89
  90,  91,  92,  93,  94,  95,  96,  97, 170, 171, 172, 173, 174, 175, 176, 177
 178, 179, 180, 181, 182, 183, 184, 185, 186, 187, 188, 189, 190, 191, 192, 193
 194, 195, 196, 197, 198, 199, 200, 201, 202, 203, 204, 205
*Elset, elset=VerticalSupport, instance=CF-1
  630,  631,  632,  633,  634,  635,  636,  637,  638,  639,  640,  641,  642,  643,  644,  645
  646,  647,  648,  649,  650,  651,  652,  653,  654,  655,  656,  657,  658,  659,  660,  661
  662,  663,  664,  665,  666, 1370, 1371, 1372, 1373, 1374, 1375, 1376, 1377, 1378, 1379, 1380
 1381, 1382, 1383, 1384, 1385, 1386, 1387, 1388, 1389, 1390, 1391, 1392, 1393, 1394, 1395, 1396
 1397, 1398, 1399, 1400, 1401, 1402, 1403, 1404, 1405, 1406
*Nset, nset=XDirSupport, instance=CF-1
 3,
*Nset, nset=YDirSupport, instance=CF-1
 7,
*Nset, nset=rigid_loading_set, instance=CF-2
   1,   2,   5,   6,   9,  10,  11,  12,  13,  14,  15,  16,  17,  18,  19,  20
  21,  22,  23,  24,  25,  26,  27,  28,  29,  30,  31,  32,  33,  34,  35,  36
  37,  38,  39,  40,  41,  42,  43,  44, 115, 116, 117, 118, 119, 120, 121, 122
 123, 124, 125, 126, 127, 128, 129, 130, 131, 132, 133, 134, 135, 136, 137, 138
 139, 140, 141, 142, 143, 144, 145, 146, 147, 148, 149, 150, 151, 152, 835, 836
 837, 838, 839, 840, 841, 842, 843, 844, 845, 846, 847, 848, 849, 850, 851, 852
 853, 854, 855, 856, 857, 858, 859, 860, 861, 862, 863, 864, 865, 866, 867, 868
 869, 870
*Elset, elset=rigid_loading_set, instance=CF-2, generate
 667,  740,    1
*Nset, nset=_PickedSet14, internal
 1,
*Elset, elset=__PickedSurf15_SPOS, internal, instance=CF-2, generate
 667,  740,    1
*Surface, type=ELEMENT, name=_PickedSurf15, internal
__PickedSurf15_SPOS, SPOS
** Constraint: BatPoly-0
*Tie, name=BatPoly-0, adjust=no, position tolerance=1.
Battery-1.Battery-rivet-0, Polymer-1.Polymer-rivet-0
** Constraint: BatPoly-1
*Tie, name=BatPoly-1, adjust=no, position tolerance=1.
Battery-1.Battery-rivet-1, Polymer-1.Polymer-rivet-1
** Constraint: BatPoly-2
*Tie, name=BatPoly-2, adjust=no, position tolerance=1.
Battery-1.Battery-rivet-2, Polymer-1.Polymer-rivet-2
** Constraint: BatPoly-3
*Tie, name=BatPoly-3, adjust=no, position tolerance=1.
Battery-1.Battery-rivet-3, Polymer-1.Polymer-rivet-3
** Constraint: CF1Poly
*Tie, name=CF1Poly, adjust=no, position tolerance=1.
Polymer-1.PolyBot, CF-1.CFtop
** Constraint: CF1Poly-Rivet-0
*Tie, name=CF1Poly-Rivet-0, adjust=no, position tolerance=1.
Polymer-1.Polymer-rivet-bot-0, CF-1.CFtop
** Constraint: CF1Poly-Rivet-1
*Tie, name=CF1Poly-Rivet-1, adjust=no, position tolerance=1.
Polymer-1.Polymer-rivet-bot-1, CF-1.CFtop
** Constraint: CF1Poly-Rivet-2
*Tie, name=CF1Poly-Rivet-2, adjust=no, position tolerance=1.
Polymer-1.Polymer-rivet-bot-2, CF-1.CFtop
** Constraint: CF1Poly-Rivet-3
*Tie, name=CF1Poly-Rivet-3, adjust=no, position tolerance=1.
Polymer-1.Polymer-rivet-bot-3, CF-1.CFtop
** Constraint: CF2Poly
*Tie, name=CF2Poly, adjust=no, position tolerance=1.
Polymer-1.PolyTop, CF-2.CFbot
** Constraint: CF2Poly-Rivet-0
*Tie, name=CF2Poly-Rivet-0, adjust=no, position tolerance=1.
Polymer-1.Polymer-rivet-top-0, CF-2.CFbot
** Constraint: CF2Poly-Rivet-1
*Tie, name=CF2Poly-Rivet-1, adjust=no, position tolerance=1.
Polymer-1.Polymer-rivet-top-1, CF-2.CFbot
** Constraint: CF2Poly-Rivet-2
*Tie, name=CF2Poly-Rivet-2, adjust=no, position tolerance=1.
Polymer-1.Polymer-rivet-top-2, CF-2.CFbot
** Constraint: CF2Poly-Rivet-3
*Tie, name=CF2Poly-Rivet-3, adjust=no, position tolerance=1.
Polymer-1.Polymer-rivet-top-3, CF-2.CFbot
** Constraint: LoadingRigidBody
*Rigid Body, ref node=_PickedSet14, tie nset=rigid_loading_set
*End Assembly
** 
** MATERIALS
** 
*Material, name=BatOrtho
*Elastic, type=ENGINEERING CONSTANTS
1090., 109., 500., 0.15, 0.15, 0.15, 474., 474.
 474.,
*Material, name=CF_material
*Elastic, type=ENGINEERING CONSTANTS
30420.,  4023.,  4023.,   0.29,   0.29, 0.3928,  2081.,  2081.
  1440.,
*Material, name=Polymer
*Elastic
500., 0.3
** 
** INTERACTION PROPERTIES
** 
*Surface Interaction, name=NormCont
1.,
*Friction, slip tolerance=0.005
 0.3,
*Surface Behavior, pressure-overclosure=HARD
** 
** INTERACTIONS
** 
** Interaction: CF1Bat
*Contact Pair, interaction=NormCont, type=SURFACE TO SURFACE
Battery-1.BatBot, CF-1.CFtop
** Interaction: CF2Bat
*Contact Pair, interaction=NormCont, type=SURFACE TO SURFACE
Battery-1.BatTop, CF-2.CFbot
** ----------------------------------------------------------------
** 
** STEP: Loading
** 
*Step, name=Loading, nlgeom=NO
*Static
1., 1., 1e-05, 1.
** 
** BOUNDARY CONDITIONS
** 
** Name: VerticalSupport Type: Displacement/Rotation
*Boundary
VerticalSupport, 3, 3
** Name: XDirSupport Type: Displacement/Rotation
*Boundary
XDirSupport, 1, 1
** Name: YDirSupport Type: Displacement/Rotation
*Boundary
YDirSupport, 2, 2
** 
** LOADS
** 
** Name: Load-1   Type: Pressure
*Dsload
_PickedSurf15, P, 0.181818
** 
** OUTPUT REQUESTS
** 
*Restart, write, frequency=0
** 
** FIELD OUTPUT: F-Output-1
** 
*Output, field
*Node Output
U, UR, UT
*Element Output, directions=YES
EVOL, 
** 
** HISTORY OUTPUT: H-Output-1
** 
*Output, history, variable=PRESELECT
*End Step
