*Heading
** Job name: Job-30 Model name: Model-1
** Generated by: Abaqus/CAE 2019
*Preprint, echo=NO, model=NO, history=NO, contact=NO
**
** PARTS
**
*Part, name=Battery
*Node
      1,   20.6191788,    76.257309,           0.
      2,   17.3386269,   80.7726059,           0.
      3,    14.821187,   82.0553055,           0.
      4,   9.23997974,   82.0553055,           0.
      5,    6.7225399,   80.7726059,           0.
      6,   3.44198823,    76.257309,           0.
      7,           3.,   73.4667053,           0.
      8,   3.44198823,   70.6761017,           0.
      9,    6.7225399,   66.1608124,           0.
     10,   9.23997974,   64.8781128,           0.
     11,    14.821187,   64.8781128,           0.
     12,   17.3386269,   66.1608124,           0.
     13,   20.6191788,   70.6761017,           0.
     14,   21.0611668,   73.4667053,           0.
     15,    42.855751,   83.4083176,           0.
     16,   41.0953064,   85.6158447,           0.
     17,   38.5513916,   86.8409348,           0.
     18,   33.1839409,   85.6158447,           0.
     19,   31.4234982,   83.4083176,           0.
     20,   30.7952023,   80.6555786,           0.
** ... 3631 like lines cut
*Element, type=C3D8R
   1,  487,  316,  212,  414, 1704, 1533, 1429, 1631
   2,  130,  129,  186,  212, 1347, 1346, 1403, 1429
   3,    2,  200,  201,    3, 1219, 1417, 1418, 1220
   4,   55,   17,  127,  126, 1272, 1234, 1344, 1343
   5,    4,  197,  191,    5, 1221, 1414, 1408, 1222
   6,  115,  215, 1091,  116, 1332, 1432, 2308, 1333
   7,    6,   51, 1095,  269, 1223, 1268, 2312, 1486
   8,  108,    8,    7,  109, 1325, 1225, 1224, 1326
   9,  257,   95,   94,  256, 1474, 1312, 1311, 1473
  10,  252,   82,   81,  251, 1469, 1299, 1298, 1468
  11,  307,  176,   32,   31, 1524, 1393, 1249, 1248
  12,   90,  217,  231,   91, 1307, 1434, 1448, 1308
  13,  555,  478,  477,  557, 1772, 1695, 1694, 1774
  14,  495,  311, 1109,  412, 1712, 1528, 2326, 1629
  15,  803,  736,  189, 1099, 2020, 1953, 1406, 2316
  16,  660,  199,   11,  193, 1877, 1416, 1228, 1410
  17, 1103,  182,   56,   23, 2320, 1399, 1273, 1240
  18, 1101,    1,   14,  203, 2318, 1218, 1231, 1420
  19,  496,  210,   36,  207, 1713, 1427, 1253, 1424
  20,  581,  496,  207,  410, 1798, 1713, 1424, 1627
** ... 2248 like lines cut
*Nset, nset=Batset, generate
    1,  3651,     1
*Elset, elset=Batset, generate
    1,  2268,     1
*Elset, elset=_BatTop_S2, internal, generate
 1135,  2268,     1
*Surface, type=ELEMENT, name=BatTop
_BatTop_S2, S2
*Elset, elset=_BatBot_S1, internal, generate
    1,  1134,     1
*Surface, type=ELEMENT, name=BatBot
_BatBot_S1, S1
*Elset, elset=_Battery-rivet-0_S6, internal
   26,  162, 1160, 1296
*Elset, elset=_Battery-rivet-0_S5, internal
   45,  192, 1097, 1179, 1326, 2231
*Elset, elset=_Battery-rivet-0_S3, internal
   51,   57, 1096, 1185, 1191, 2230
*Elset, elset=_Battery-rivet-0_S4, internal
  188,  193, 1322, 1327
*Surface, type=ELEMENT, name=Battery-rivet-0
_Battery-rivet-0_S6, S6
_Battery-rivet-0_S5, S5
_Battery-rivet-0_S4, S4
_Battery-rivet-0_S3, S3
*Elset, elset=_Battery-rivet-1_S5, internal
   11,   61,  146, 1145, 1195, 1280
*Elset, elset=_Battery-rivet-1_S4, internal
   27,   44,  149,  151, 1161, 1178, 1283, 1285
*Elset, elset=_Battery-rivet-1_S6, internal
   29, 1163
*Surface, type=ELEMENT, name=Battery-rivet-1
_Battery-rivet-1_S5, S5
_Battery-rivet-1_S4, S4
_Battery-rivet-1_S6, S6
*Elset, elset=_Battery-rivet-2_S3, internal
    4,   32,   54,  108,  123, 1138, 1166, 1188, 1242, 1257
*Elset, elset=_Battery-rivet-2_S5, internal
   17,  107,  161,  166, 1151, 1241, 1295, 1300
*Elset, elset=_Battery-rivet-2_S4, internal
   40,   52,  113,  163,  292, 1174, 1186, 1247, 1297, 1426
*Surface, type=ELEMENT, name=Battery-rivet-2
_Battery-rivet-2_S3, S3
_Battery-rivet-2_S5, S5
_Battery-rivet-2_S4, S4
*Elset, elset=_Battery-rivet-3_S6, internal
    3,    5,   36,   94,   97,  101, 1137, 1139, 1170, 1228, 1231, 1235
*Elset, elset=_Battery-rivet-3_S3, internal
    7,   34,   48,   90,  158, 1141, 1168, 1182, 1224, 1292
*Elset, elset=_Battery-rivet-3_S4, internal
    8,   18,   43,   96,  173,  175, 1142, 1152, 1177, 1230, 1307, 1309
*Elset, elset=_Battery-rivet-3_S5, internal
   86,  170,  172, 1220, 1304, 1306
*Surface, type=ELEMENT, name=Battery-rivet-3
_Battery-rivet-3_S6, S6
_Battery-rivet-3_S3, S3
_Battery-rivet-3_S4, S4
_Battery-rivet-3_S5, S5
*Orientation, name=Ori-1
1., 0., 0., 0., 1., 0.
3, 0.
** Section: BatOrtho
*Solid Section, elset=Batset, orientation=Ori-1, material=BatOrtho
,
*End Part
**  
*Part, name=CF
*Node
      1,         52.5,           0.,           0.
      2,         52.5,         110.,           0.
      3,           0.,         110.,           0.
      4,           0.,           0.,           0.
      5,         57.5,           0.,           0.
      6,         57.5,         110.,           0.
      7,         110.,           0.,           0.
      8,         110.,         110.,           0.
      9,         52.5,   2.97297287,           0.
     10,         52.5,   5.94594574,           0.
     11,         52.5,   8.91891861,           0.
     12,         52.5,   11.8918915,           0.
     13,         52.5,   14.8648653,           0.
     14,         52.5,   17.8378372,           0.
     15,         52.5,   20.8108101,           0.
     16,         52.5,    23.783783,           0.
     17,         52.5,   26.7567558,           0.
     18,         52.5,   29.7297306,           0.
     19,         52.5,   32.7027016,           0.
     20,         52.5,   35.6756744,           0.
** ... 1462 like lines cut
*Element, type=S4R
  1,   1,   9, 223, 114
  2,   9,  10, 224, 223
  3,  10,  11, 225, 224
  4,  11,  12, 226, 225
  5,  12,  13, 227, 226
  6,  13,  14, 228, 227
  7,  14,  15, 229, 228
  8,  15,  16, 230, 229
  9,  16,  17, 231, 230
 10,  17,  18, 232, 231
 11,  18,  19, 233, 232
 12,  19,  20, 234, 233
 13,  20,  21, 235, 234
 14,  21,  22, 236, 235
 15,  22,  23, 237, 236
 16,  23,  24, 238, 237
 17,  24,  25, 239, 238
 18,  25,  26, 240, 239
 19,  26,  27, 241, 240
 20,  27,  28, 242, 241
** ... 1386 like lines cut
*Nset, nset=CF_set, generate
    1,  1482,     1
*Elset, elset=CF_set, generate
    1,  1406,     1
*Elset, elset=_CFtop_SPOS, internal, generate
    1,  1406,     1
*Surface, type=ELEMENT, name=CFtop
_CFtop_SPOS, SPOS
*Elset, elset=_CFbot_SNEG, internal, generate
    1,  1406,     1
*Surface, type=ELEMENT, name=CFbot
_CFbot_SNEG, SNEG
** Section: CF_sec
*Shell Section, elset=CF_set, composite
0.2, 3, CF_material, 0.
0.2, 3, CF_material, 90.
0.2, 3, CF_material, 90.
0.2, 3, CF_material, 0.
*End Part
**  
*Part, name=Polymer
*Node
      1,   53.4840431,   90.6555786,           0.
      2,   53.4840431,   90.6555786,           5.
      3,   51.1176987,   45.4876938,           0.
      4,   51.1176987,   45.4876938,           5.
      5,          10.,         100.,           0.
      6,          10.,          10.,           0.
      7,         100.,          10.,           0.
      8,         100.,         100.,           0.
      9,         110.,           0.,           0.
     10,           0.,           0.,           0.
     11,           0.,         110.,           0.
     12,         110.,         110.,           0.
     13,          10.,          10.,           5.
     14,          10.,         100.,           5.
     15,         100.,         100.,           5.
     16,         100.,          10.,           5.
     17,           0.,         110.,           5.
     18,           0.,           0.,           5.
     19,         110.,           0.,           5.
     20,         110.,         110.,           5.
** ... 2347 like lines cut
*Element, type=C3D8R
 1,  701,  700, 1915, 1916,   36,   35,  665,  666
 2, 1914, 1915,  700,  699,  664,  665,   35,   34
 3, 1913, 1912, 1900, 1904,  663,  662,  650,  654
 4, 1899,  702,  701, 1916,  649,   37,   36,  666
 5, 1901, 1900, 1912, 1911,  651,  650,  662,  661
 6, 1908, 1902, 1917, 1905,  658,  652,  667,  655
 7, 1908, 1905, 1901, 1909,  658,  655,  651,  659
 8,  689, 1907, 1903,  690,    1,  657,  653,   25
 9, 1907, 1905, 1917, 1903,  657,  655,  667,  653
10, 1914, 1913, 1904, 1918,  664,  663,  654,  668
11, 1905, 1906, 1900, 1901,  655,  656,  650,  651
12,  702, 1899, 1907,  689,   37,  649,  657,    1
13,  696, 1911, 1912,  697,   31,  661,  662,   32
14, 1910, 1911,  696,  695,  660,  661,   31,   30
15, 1910, 1909, 1901, 1911,  660,  659,  651,  661
16, 1908,  693,  692, 1902,  658,   28,   27,  652
17, 1917, 1902,  692,  691,  667,  652,   27,   26
18, 1903, 1917,  691,  690,  653,  667,   26,   25
19, 1899, 1906, 1905, 1907,  649,  656,  655,  657
20,  699,  698, 1913, 1914,   34,   33,  663,  664
** ... 1230 like lines cut
*Nset, nset=PolySet
    5,    6,    7,    8,    9,   10,   11,   12,   13,   14,   15,   16,   17,   18,   19,   20
   69,   70,   71,   72,   73,   74,   75,   76,   77,   78,   79,   80,   81,   82,   83,   84
   85,   86,   87,   88,   89,   90,   91,   92,   93,   94,   95,   96,   97,   98,   99,  100
  101,  102,  103,  104,  105,  106,  107,  108,  109,  110,  111,  112,  113,  114,  115,  116
  117,  118,  119,  120,  121,  122,  123,  124,  125,  126,  127,  128,  129,  130,  131,  132
  133,  134,  135,  136,  137,  138,  139,  140,  141,  142,  143,  144,  145,  146,  147,  148
  149,  150,  151,  152,  153,  154,  155,  156,  157,  158,  159,  160,  161,  162,  163,  164
  165,  166,  167,  168,  169,  170,  171,  172,  173,  174,  175,  176,  177,  178,  179,  180
  181,  182,  183,  184,  185,  186,  187,  188,  189,  190,  191,  192,  193,  194,  195,  196
  197,  198,  199,  200,  201,  202,  203,  204,  205,  206,  207,  208,  209,  210,  211,  212
  213,  214,  215,  216,  217,  218,  219,  220,  221,  222,  223,  224,  225,  226,  227,  228
  229,  230,  231,  232,  233,  234,  235,  236,  237,  238,  239,  240,  241,  242,  243,  244
  245,  246,  247,  248,  249,  250,  251,  252,  253,  254,  255,  256,  257,  258,  259,  260
  261,  262,  263,  264,  265,  266,  267,  268,  269,  270,  271,  272,  273,  274,  275,  276
  277,  278,  279,  280,  281,  282,  283,  284,  285,  286,  287,  288,  289,  290,  291,  292
  293,  294,  295,  296,  297,  298,  299,  300,  301,  302,  303,  304,  305,  306,  307,  308
  309,  310,  311,  312,  313,  314,  315,  316,  317,  318,  319,  320,  321,  322,  323,  324
  325,  326,  327,  328,  329,  330,  331,  332,  333,  334,  335,  336,  337,  338,  339,  340
  341,  342,  343,  344,  345,  346,  347,  348,  349,  350,  351,  352,  353,  354,  355,  356
  357,  358,  359,  360,  361,  362,  363,  364,  365,  366,  367,  368,  369,  370,  371,  372
** ... 106 like lines cut
*Elset, elset=PolySet, generate
   79,  1150,     1
*Nset, nset=_PickedSet12, internal
    3,    4,   51,   52,   53,   54,   55,   56,   57,   58,   59,   60,   61,   62,   63,   64
   65,   66,   67,   68,  703,  704,  705,  706,  707,  708,  709,  710,  711,  712,  713,  714
  715,  716,  717,  718,  719,  720,  721,  722,  723,  724,  725,  726,  727,  728,  729,  730
 1919, 1920, 1921, 1922, 1923, 1924, 1925, 1926, 1927
*Elset, elset=_PickedSet12, internal, generate
 53,  78,   1
*Nset, nset=_PickedSet17, internal
   21,   22,  597,  598,  599,  600,  601,  602,  603,  604,  605,  606,  607,  608,  609,  610
 1795, 1796, 1797, 1798, 1799, 1800, 1801, 1802, 1803, 1804, 2330
*Elset, elset=_PickedSet17, internal, generate
 1151,  1158,     1
*Nset, nset=_PickedSet22, internal
    1,    2,   25,   26,   27,   28,   29,   30,   31,   32,   33,   34,   35,   36,   37,   38
   39,   40,   41,   42,   43,   44,   45,   46,   47,   48,   49,   50,  649,  650,  651,  652
  653,  654,  655,  656,  657,  658,  659,  660,  661,  662,  663,  664,  665,  666,  667,  668
  669,  670,  671,  672,  673,  674,  675,  676,  677,  678,  679,  680,  681,  682,  683,  684
  685,  686,  687,  688,  689,  690,  691,  692,  693,  694,  695,  696,  697,  698,  699,  700
  701,  702, 1899, 1900, 1901, 1902, 1903, 1904, 1905, 1906, 1907, 1908, 1909, 1910, 1911, 1912
 1913, 1914, 1915, 1916, 1917, 1918
*Elset, elset=_PickedSet22, internal, generate
  1,  52,   1
*Nset, nset=_PickedSet27, internal
   23,   24,  611,  612,  613,  614,  615,  616,  617,  618,  619,  620,  621,  622,  623,  624
  625,  626,  627,  628,  629,  630,  631,  632,  633,  634,  635,  636,  637,  638,  639,  640
  641,  642,  643,  644,  645,  646,  647,  648, 1805, 1806, 1807, 1808, 1809, 1810, 1811, 1812
 1813, 1814, 1815, 1816, 1817, 1818, 1819, 1820, 1821, 1822, 1823, 1824, 1825, 1826, 1827, 1828
 1829, 1830, 1831, 1832, 1833, 1834, 1835, 1836, 1837, 1838, 1839, 1840, 1841, 1842, 1843, 1844
 1845, 1846, 1847, 1848, 1849, 1850, 1851, 1852, 1853, 1854, 1855, 1856, 1857, 1858, 1859, 1860
 1861, 1862, 1863, 1864, 1865, 1866, 1867, 1868, 1869, 1870, 1871, 1872, 1873, 1874, 1875, 1876
 1877, 1878, 1879, 1880, 1881, 1882, 1883, 1884, 1885, 1886, 1887, 1888, 1889, 1890, 1891, 1892
 1893, 1894, 1895, 1896, 1897, 1898, 2331, 2332, 2333, 2334, 2335, 2336, 2337, 2338, 2339, 2340
 2341, 2342, 2343, 2344, 2345, 2346, 2347, 2348, 2349, 2350, 2351, 2352, 2353, 2354, 2355, 2356
 2357, 2358, 2359, 2360, 2361, 2362, 2363, 2364, 2365, 2366, 2367
*Elset, elset=_PickedSet27, internal, generate
 1159,  1250,     1
*Elset, elset=_PolyTop_S2, internal, generate
  615,  1150,     1
*Surface, type=ELEMENT, name=PolyTop
_PolyTop_S2, S2
*Elset, elset=_PolyBot_S1, internal, generate
  79,  614,    1
*Surface, type=ELEMENT, name=PolyBot
_PolyBot_S1, S1
*Elset, elset=_Polymer-rivet-0_S4, internal
 53, 55, 58, 60, 66, 68, 71, 73
*Elset, elset=_Polymer-rivet-0_S5, internal
 53, 56, 57, 62, 66, 69, 70, 75
*Elset, elset=_Polymer-rivet-0_S3, internal
 59, 72
*Elset, elset=_Polymer-rivet-0_S6, internal
 63, 76
*Surface, type=ELEMENT, name=Polymer-rivet-0
_Polymer-rivet-0_S4, S4
_Polymer-rivet-0_S5, S5
_Polymer-rivet-0_S6, S6
_Polymer-rivet-0_S3, S3
*Elset, elset=_Polymer-rivet-top-0_S1, internal, generate
 66,  78,   1
*Surface, type=ELEMENT, name=Polymer-rivet-top-0
_Polymer-rivet-top-0_S1, S1
*Elset, elset=_Polymer-rivet-bot-0_S2, internal, generate
 53,  65,   1
*Surface, type=ELEMENT, name=Polymer-rivet-bot-0
_Polymer-rivet-bot-0_S2, S2
*Elset, elset=_Polymer-rivet-1_S4, internal
 1151, 1154, 1155, 1158
*Elset, elset=_Polymer-rivet-1_S5, internal
 1151, 1154, 1155, 1158
*Elset, elset=_Polymer-rivet-1_S3, internal
 1152, 1153, 1156, 1157
*Elset, elset=_Polymer-rivet-1_S6, internal
 1152, 1153, 1156, 1157
*Surface, type=ELEMENT, name=Polymer-rivet-1
_Polymer-rivet-1_S4, S4
_Polymer-rivet-1_S5, S5
_Polymer-rivet-1_S6, S6
_Polymer-rivet-1_S3, S3
*Elset, elset=_Polymer-rivet-top-1_S1, internal, generate
 1155,  1158,     1
*Surface, type=ELEMENT, name=Polymer-rivet-top-1
_Polymer-rivet-top-1_S1, S1
*Elset, elset=_Polymer-rivet-bot-1_S2, internal, generate
 1151,  1154,     1
*Surface, type=ELEMENT, name=Polymer-rivet-bot-1
_Polymer-rivet-bot-1_S2, S2
*Elset, elset=_Polymer-rivet-2_S3, internal
  1, 20, 22, 23, 27, 46, 48, 49
*Elset, elset=_Polymer-rivet-2_S5, internal
  2, 14, 17, 18, 28, 40, 43, 44
*Elset, elset=_Polymer-rivet-2_S4, internal
  4, 16, 30, 42
*Elset, elset=_Polymer-rivet-2_S6, internal
  8, 12, 13, 24, 34, 38, 39, 50
*Surface, type=ELEMENT, name=Polymer-rivet-2
_Polymer-rivet-2_S3, S3
_Polymer-rivet-2_S5, S5
_Polymer-rivet-2_S4, S4
_Polymer-rivet-2_S6, S6
*Elset, elset=_Polymer-rivet-top-2_S1, internal, generate
 27,  52,   1
*Surface, type=ELEMENT, name=Polymer-rivet-top-2
_Polymer-rivet-top-2_S1, S1
*Elset, elset=_Polymer-rivet-bot-2_S2, internal, generate
  1,  26,   1
*Surface, type=ELEMENT, name=Polymer-rivet-bot-2
_Polymer-rivet-bot-2_S2, S2
*Elset, elset=_Polymer-rivet-3_S6, internal
 1159, 1161, 1171, 1177, 1205, 1207, 1217, 1223
*Elset, elset=_Polymer-rivet-3_S4, internal
 1160, 1166, 1170, 1174, 1175, 1176, 1197, 1206, 1212, 1216, 1220, 1221, 1222, 1243
*Elset, elset=_Polymer-rivet-3_S3, internal
 1162, 1167, 1169, 1198, 1200, 1208, 1213, 1215, 1244, 1246
*Elset, elset=_Polymer-rivet-3_S5, internal
 1178, 1179, 1180, 1181, 1224, 1225, 1226, 1227
*Surface, type=ELEMENT, name=Polymer-rivet-3
_Polymer-rivet-3_S6, S6
_Polymer-rivet-3_S4, S4
_Polymer-rivet-3_S3, S3
_Polymer-rivet-3_S5, S5
*Elset, elset=_Polymer-rivet-top-3_S1, internal, generate
 1205,  1250,     1
*Surface, type=ELEMENT, name=Polymer-rivet-top-3
_Polymer-rivet-top-3_S1, S1
*Elset, elset=_Polymer-rivet-bot-3_S2, internal, generate
 1159,  1204,     1
*Surface, type=ELEMENT, name=Polymer-rivet-bot-3
_Polymer-rivet-bot-3_S2, S2
** Section: PolySec
*Solid Section, elset=_PickedSet22, material=Polymer
,
** Section: PolySec
*Solid Section, elset=_PickedSet12, material=Polymer
,
** Section: PolySec
*Solid Section, elset=PolySet, material=Polymer
,
** Section: PolySec
*Solid Section, elset=_PickedSet17, material=Polymer
,
** Section: PolySec
*Solid Section, elset=_PickedSet27, material=Polymer
,
*End Part
**  
**
** ASSEMBLY
**
*Assembly, name=Assembly
**  
*Instance, name=Polymer-1, part=Polymer
*End Instance
**  
*Instance, name=Battery-1, part=Battery
         10.,          10.,           0.
*End Instance
**  
*Instance, name=CF-1, part=CF
          0.,           0.,         -0.4
*End Instance
**  
*Instance, name=CF-2, part=CF
          0.,           0.,          5.4
*End Instance
**  
*Node
      1,          55.,          55.,    5.4000001
*Nset, nset=VerticalSupport, instance=CF-1
   3,   4,   7,   8,  62,  63,  64,  65,  66,  67,  68,  69,  70,  71,  72,  73
  74,  75,  76,  77,  78,  79,  80,  81,  82,  83,  84,  85,  86,  87,  88,  89
  90,  91,  92,  93,  94,  95,  96,  97, 170, 171, 172, 173, 174, 175, 176, 177
 178, 179, 180, 181, 182, 183, 184, 185, 186, 187, 188, 189, 190, 191, 192, 193
 194, 195, 196, 197, 198, 199, 200, 201, 202, 203, 204, 205
*Elset, elset=VerticalSupport, instance=CF-1
  630,  631,  632,  633,  634,  635,  636,  637,  638,  639,  640,  641,  642,  643,  644,  645
  646,  647,  648,  649,  650,  651,  652,  653,  654,  655,  656,  657,  658,  659,  660,  661
  662,  663,  664,  665,  666, 1370, 1371, 1372, 1373, 1374, 1375, 1376, 1377, 1378, 1379, 1380
 1381, 1382, 1383, 1384, 1385, 1386, 1387, 1388, 1389, 1390, 1391, 1392, 1393, 1394, 1395, 1396
 1397, 1398, 1399, 1400, 1401, 1402, 1403, 1404, 1405, 1406
*Nset, nset=XDirSupport, instance=CF-1
 3,
*Nset, nset=YDirSupport, instance=CF-1
 7,
*Nset, nset=rigid_loading_set, instance=CF-2
   1,   2,   5,   6,   9,  10,  11,  12,  13,  14,  15,  16,  17,  18,  19,  20
  21,  22,  23,  24,  25,  26,  27,  28,  29,  30,  31,  32,  33,  34,  35,  36
  37,  38,  39,  40,  41,  42,  43,  44, 115, 116, 117, 118, 119, 120, 121, 122
 123, 124, 125, 126, 127, 128, 129, 130, 131, 132, 133, 134, 135, 136, 137, 138
 139, 140, 141, 142, 143, 144, 145, 146, 147, 148, 149, 150, 151, 152, 835, 836
 837, 838, 839, 840, 841, 842, 843, 844, 845, 846, 847, 848, 849, 850, 851, 852
 853, 854, 855, 856, 857, 858, 859, 860, 861, 862, 863, 864, 865, 866, 867, 868
 869, 870
*Elset, elset=rigid_loading_set, instance=CF-2, generate
 667,  740,    1
*Nset, nset=_PickedSet14, internal
 1,
*Elset, elset=__PickedSurf15_SPOS, internal, instance=CF-2, generate
 667,  740,    1
*Surface, type=ELEMENT, name=_PickedSurf15, internal
__PickedSurf15_SPOS, SPOS
** Constraint: BatPoly-0
*Tie, name=BatPoly-0, adjust=no, position tolerance=1.
Battery-1.Battery-rivet-0, Polymer-1.Polymer-rivet-0
** Constraint: BatPoly-1
*Tie, name=BatPoly-1, adjust=no, position tolerance=1.
Battery-1.Battery-rivet-1, Polymer-1.Polymer-rivet-1
** Constraint: BatPoly-2
*Tie, name=BatPoly-2, adjust=no, position tolerance=1.
Battery-1.Battery-rivet-2, Polymer-1.Polymer-rivet-2
** Constraint: BatPoly-3
*Tie, name=BatPoly-3, adjust=no, position tolerance=1.
Battery-1.Battery-rivet-3, Polymer-1.Polymer-rivet-3
** Constraint: CF1Poly
*Tie, name=CF1Poly, adjust=no, position tolerance=1.
Polymer-1.PolyBot, CF-1.CFtop
** Constraint: CF1Poly-Rivet-0
*Tie, name=CF1Poly-Rivet-0, adjust=no, position tolerance=1.
Polymer-1.Polymer-rivet-bot-0, CF-1.CFtop
** Constraint: CF1Poly-Rivet-1
*Tie, name=CF1Poly-Rivet-1, adjust=no, position tolerance=1.
Polymer-1.Polymer-rivet-bot-1, CF-1.CFtop
** Constraint: CF1Poly-Rivet-2
*Tie, name=CF1Poly-Rivet-2, adjust=no, position tolerance=1.
Polymer-1.Polymer-rivet-bot-2, CF-1.CFtop
** Constraint: CF1Poly-Rivet-3
*Tie, name=CF1Poly-Rivet-3, adjust=no, position tolerance=1.
Polymer-1.Polymer-rivet-bot-3, CF-1.CFtop
** Constraint: CF2Poly
*Tie, name=CF2Poly, adjust=no, position tolerance=1.
Polymer-1.PolyTop, CF-2.CFbot
** Constraint: CF2Poly-Rivet-0
*Tie, name=CF2Poly-Rivet-0, adjust=no, position tolerance=1.
Polymer-1.Polymer-rivet-top-0, CF-2.CFbot
** Constraint: CF2Poly-Rivet-1
*Tie, name=CF2Poly-Rivet-1, adjust=no, position tolerance=1.
Polymer-1.Polymer-rivet-top-1, CF-2.CFbot
** Constraint: CF2Poly-Rivet-2
*Tie, name=CF2Poly-Rivet-2, adjust=no, position tolerance=1.
Polymer-1.Polymer-rivet-top-2, CF-2.CFbot
** Constraint: CF2Poly-Rivet-3
*Tie, name=CF2Poly-Rivet-3, adjust=no, position tolerance=1.
Polymer-1.Polymer-rivet-top-3, CF-2.CFbot
** Constraint: LoadingRigidBody
*Rigid Body, ref node=_PickedSet14, tie nset=rigid_loading_set
*End Assembly
** 
** MATERIALS
** 
*Material, name=BatOrtho
*Elastic, type=ENGINEERING CONSTANTS
1090., 109., 500., 0.15, 0.15, 0.15, 474., 474.
 474.,
*Material, name=CF_material
*Elastic, type=ENGINEERING CONSTANTS
30420.,  4023.,  4023.,   0.29,   0.29, 0.3928,  2081.,  2081.
  1440.,
*Material, name=Polymer
*Elastic
500., 0.3
** 
** INTERACTION PROPERTIES
** 
*Surface Interaction, name=NormCont
1.,
*Friction, slip tolerance=0.005
 0.3,
*Surface Behavior, pressure-overclosure=HARD
** 
** INTERACTIONS
** 
** Interaction: CF1Bat
*Contact Pair, interaction=NormCont, type=SURFACE TO SURFACE
Battery-1.BatBot, CF-1.CFtop
** Interaction: CF2Bat
*Contact Pair, interaction=NormCont, type=SURFACE TO SURFACE
Battery-1.BatTop, CF-2.CFbot
** ----------------------------------------------------------------
** 
** STEP: Loading
** 
*Step, name=Loading, nlgeom=NO
*Static
1., 1., 1e-05, 1.
** 
** BOUNDARY CONDITIONS
** 
** Name: VerticalSupport Type: Displacement/Rotation
*Boundary
VerticalSupport, 3, 3
** Name: XDirSupport Type: Displacement/Rotation
*Boundary
XDirSupport, 1, 1
** Name: YDirSupport Type: Displacement/Rotation
*Boundary
YDirSupport, 2, 2
** 
** LOADS
** 
** Name: Load-1   Type: Pressure
*Dsload
_PickedSurf15, P, 0.181818
** 
** OUTPUT REQUESTS
** 
*Restart, write, frequency=0
** 
** FIELD OUTPUT: F-Output-1
** 
*Output, field
*Node Output
U, UR, UT
*Element Output, directions=YES
EVOL, 
** 
** HISTORY OUTPUT: H-Output-1
** 
*Output, history, variable=PRESELECT
*End Step
