*Heading
** Job name: Job-49 Model name: Model-1
** Generated by: Abaqus/CAE 2019
*Preprint, echo=NO, model=NO, history=NO, contact=NO
**
** PARTS
**
*Part, name=Battery
*Node
      1,   86.1213226,    38.695755,           0.
      2,          84.,   39.5744324,           0.
      3,   81.8786774,    38.695755,           0.
      4,          81.,   36.5744324,           0.
      5,   81.8786774,   34.4531136,           0.
      6,          84.,   33.5744324,           0.
      7,   86.1213226,   34.4531136,           0.
      8,          87.,   36.5744324,           0.
      9,   86.1213226,   49.7811699,           0.
     10,          84.,   50.6598511,           0.
     11,   81.8786774,   49.7811699,           0.
     12,          81.,   47.6598511,           0.
     13,   81.8786774,   45.5385323,           0.
     14,          84.,   44.6598511,           0.
     15,   86.1213226,   45.5385323,           0.
     16,          87.,   47.6598511,           0.
     17,   8.12132072,   13.9447222,           0.
     18,           6.,   14.8234015,           0.
     19,   3.87867975,   13.9447222,           0.
     20,           3.,   11.8234015,           0.
** ... 3805 like lines cut
*Element, type=C3D8R
   1,  198,   50,   49,  196, 1473, 1325, 1324, 1471
   2,  354,  442,  438,  304, 1629, 1717, 1713, 1579
   3,  183,  148,  147,  182, 1458, 1423, 1422, 1457
   4,  255,  149,  148,  183, 1530, 1424, 1423, 1458
   5,  182,  309,  354,  183, 1457, 1584, 1629, 1458
   6,  373,  263, 1155,  159, 1648, 1538, 2430, 1434
   7,  143,    8,    7, 1155, 1418, 1283, 1282, 2430
   8,  143, 1155,  263,  144, 1418, 2430, 1538, 1419
   9,    1,    8,  143,  142, 1276, 1283, 1418, 1417
  10,  138,  172, 1154,  139, 1413, 1447, 2429, 1414
  11,  244,  121,  120,  185, 1519, 1396, 1395, 1460
  12,  245,  122,  121,  244, 1520, 1397, 1396, 1519
  13,  130,  243,  187,  131, 1405, 1518, 1462, 1406
  14,  124,  279,  248,  125, 1399, 1554, 1523, 1400
  15,  244,  285,  349,  245, 1519, 1560, 1624, 1520
  16,  107,  231,  232,  108, 1382, 1506, 1507, 1383
  17,  601,   27,   26,  178, 1876, 1302, 1301, 1453
  18,   28,   27,  601,  175, 1303, 1302, 1876, 1450
  19,  281,  378,  332,  216, 1556, 1653, 1607, 1491
  20,  175,   81,   80,   28, 1450, 1356, 1355, 1303
** ... 2382 like lines cut
*Nset, nset=Batset, generate
    1,  3825,     1
*Elset, elset=Batset, generate
    1,  2402,     1
*Elset, elset=_BatTop_S2, internal, generate
 1202,  2402,     1
*Surface, type=ELEMENT, name=BatTop
_BatTop_S2, S2
*Elset, elset=_BatBot_S1, internal, generate
    1,  1201,     1
*Surface, type=ELEMENT, name=BatBot
_BatBot_S1, S1
*Elset, elset=_Battery-rivet-0_S4, internal
   17,   21,  159,  160,  161,  164, 1218, 1222, 1360, 1361, 1362, 1365
*Elset, elset=_Battery-rivet-0_S3, internal
   18,   39,  162, 1219, 1240, 1363
*Elset, elset=_Battery-rivet-0_S6, internal
   75, 1276
*Surface, type=ELEMENT, name=Battery-rivet-0
_Battery-rivet-0_S4, S4
_Battery-rivet-0_S3, S3
_Battery-rivet-0_S6, S6
*Elset, elset=_Battery-rivet-1_S3, internal
   25,   70,  134,  139, 1226, 1271, 1335, 1340
*Elset, elset=_Battery-rivet-1_S4, internal
   59,   66, 1260, 1267
*Elset, elset=_Battery-rivet-1_S6, internal
  133,  136, 1334, 1337
*Surface, type=ELEMENT, name=Battery-rivet-1
_Battery-rivet-1_S3, S3
_Battery-rivet-1_S4, S4
_Battery-rivet-1_S6, S6
*Elset, elset=_Battery-rivet-2_S6, internal
   37,  157, 1238, 1358
*Elset, elset=_Battery-rivet-2_S3, internal
  115,  335, 1316, 1536
*Elset, elset=_Battery-rivet-2_S5, internal
  121, 1322
*Elset, elset=_Battery-rivet-2_S4, internal
  146,  147,  155, 1347, 1348, 1356
*Surface, type=ELEMENT, name=Battery-rivet-2
_Battery-rivet-2_S6, S6
_Battery-rivet-2_S3, S3
_Battery-rivet-2_S4, S4
_Battery-rivet-2_S5, S5
*Elset, elset=_Battery-rivet-3_S4, internal
    7,   29, 1208, 1230
*Elset, elset=_Battery-rivet-3_S3, internal
    9,   49,  122, 1210, 1250, 1323
*Elset, elset=_Battery-rivet-3_S5, internal
   28,  141, 1229, 1342
*Elset, elset=_Battery-rivet-3_S6, internal
   35, 1236
*Surface, type=ELEMENT, name=Battery-rivet-3
_Battery-rivet-3_S4, S4
_Battery-rivet-3_S3, S3
_Battery-rivet-3_S6, S6
_Battery-rivet-3_S5, S5
*Orientation, name=Ori-1
1., 0., 0., 0., 1., 0.
3, 0.
** Section: BatOrtho
*Solid Section, elset=Batset, orientation=Ori-1, material=BatOrtho
,
*End Part
**  
*Part, name=CF
*Node
      1,         52.5,           0.,           0.
      2,         52.5,         110.,           0.
      3,           0.,         110.,           0.
      4,           0.,           0.,           0.
      5,         57.5,           0.,           0.
      6,         57.5,         110.,           0.
      7,         110.,           0.,           0.
      8,         110.,         110.,           0.
      9,         52.5,   2.97297287,           0.
     10,         52.5,   5.94594574,           0.
     11,         52.5,   8.91891861,           0.
     12,         52.5,   11.8918915,           0.
     13,         52.5,   14.8648653,           0.
     14,         52.5,   17.8378372,           0.
     15,         52.5,   20.8108101,           0.
     16,         52.5,    23.783783,           0.
     17,         52.5,   26.7567558,           0.
     18,         52.5,   29.7297306,           0.
     19,         52.5,   32.7027016,           0.
     20,         52.5,   35.6756744,           0.
** ... 1462 like lines cut
*Element, type=S4R
  1,   1,   9, 223, 114
  2,   9,  10, 224, 223
  3,  10,  11, 225, 224
  4,  11,  12, 226, 225
  5,  12,  13, 227, 226
  6,  13,  14, 228, 227
  7,  14,  15, 229, 228
  8,  15,  16, 230, 229
  9,  16,  17, 231, 230
 10,  17,  18, 232, 231
 11,  18,  19, 233, 232
 12,  19,  20, 234, 233
 13,  20,  21, 235, 234
 14,  21,  22, 236, 235
 15,  22,  23, 237, 236
 16,  23,  24, 238, 237
 17,  24,  25, 239, 238
 18,  25,  26, 240, 239
 19,  26,  27, 241, 240
 20,  27,  28, 242, 241
** ... 1386 like lines cut
*Nset, nset=CF_set, generate
    1,  1482,     1
*Elset, elset=CF_set, generate
    1,  1406,     1
*Elset, elset=_CFtop_SPOS, internal, generate
    1,  1406,     1
*Surface, type=ELEMENT, name=CFtop
_CFtop_SPOS, SPOS
*Elset, elset=_CFbot_SNEG, internal, generate
    1,  1406,     1
*Surface, type=ELEMENT, name=CFbot
_CFbot_SNEG, SNEG
** Section: CF_sec
*Shell Section, elset=CF_set, composite
0.2, 3, CF_material, 0.
0.2, 3, CF_material, 90.
0.2, 3, CF_material, 90.
0.2, 3, CF_material, 0.
*End Part
**  
*Part, name=Polymer
*Node
      1,          97.,   57.6598511,           0.
      2,          97.,   57.6598511,           5.
      3,    22.679224,   47.6171722,           0.
      4,    22.679224,   47.6171722,           5.
      5,          10.,         100.,           0.
      6,          10.,          10.,           0.
      7,         100.,          10.,           0.
      8,         100.,         100.,           0.
      9,         110.,           0.,           0.
     10,           0.,           0.,           0.
     11,           0.,         110.,           0.
     12,         110.,         110.,           0.
     13,          10.,          10.,           5.
     14,          10.,         100.,           5.
     15,         100.,         100.,           5.
     16,         100.,          10.,           5.
     17,           0.,         110.,           5.
     18,           0.,           0.,           5.
     19,         110.,           0.,           5.
     20,         110.,         110.,           5.
** ... 2113 like lines cut
*Element, type=C3D8R
1, 1725,  615,  622,  621,  613,    1,   31,   30
2,  616,  615, 1725,  617,   25,    1,  613,   26
3,  618,  617, 1725,  619,   27,   26,  613,   28
4, 1725,  621,  620,  619,  613,   30,   29,   28
5,  614,    2,   32,   33, 1725,  615,  622,  621
6,   38,    2,  614,   37,  616,  615, 1725,  617
7,   36,   37,  614,   35,  618,  617, 1725,  619
8,  614,   33,   34,   35, 1725,  621,  620,  619
 9, 1728,  639,  638, 1729,  625,   46,   45,  626
10, 1729,  638,  637,  636,  626,   45,   44,   43
11,  636,  635, 1726, 1729,   43,   42,  623,  626
12, 1726,  635,  634,  633,  623,   42,   41,   40
13, 1727, 1726,  633,  632,  624,  623,   40,   39
14, 1728,  631,  640,  639,  625,    3,   47,   46
15, 1729, 1726, 1727, 1728,  626,  623,  624,  625
16,  631, 1728, 1727,  632,    3,  625,  624,   39
17,  629,   49,   50,  630, 1728,  639,  638, 1729
18,  630,   50,   51,   52, 1729,  638,  637,  636
19,   52,   53,  627,  630,  636,  635, 1726, 1729
20,  627,   53,   54,   55, 1726,  635,  634,  633
** ... 1092 like lines cut
*Nset, nset=PolySet
    5,    6,    7,    8,    9,   10,   11,   12,   13,   14,   15,   16,   17,   18,   19,   20
   57,   58,   59,   60,   61,   62,   63,   64,   65,   66,   67,   68,   69,   70,   71,   72
   73,   74,   75,   76,   77,   78,   79,   80,   81,   82,   83,   84,   85,   86,   87,   88
   89,   90,   91,   92,   93,   94,   95,   96,   97,   98,   99,  100,  101,  102,  103,  104
  105,  106,  107,  108,  109,  110,  111,  112,  113,  114,  115,  116,  117,  118,  119,  120
  121,  122,  123,  124,  125,  126,  127,  128,  129,  130,  131,  132,  133,  134,  135,  136
  137,  138,  139,  140,  141,  142,  143,  144,  145,  146,  147,  148,  149,  150,  151,  152
  153,  154,  155,  156,  157,  158,  159,  160,  161,  162,  163,  164,  165,  166,  167,  168
  169,  170,  171,  172,  173,  174,  175,  176,  177,  178,  179,  180,  181,  182,  183,  184
  185,  186,  187,  188,  189,  190,  191,  192,  193,  194,  195,  196,  197,  198,  199,  200
  201,  202,  203,  204,  205,  206,  207,  208,  209,  210,  211,  212,  213,  214,  215,  216
  217,  218,  219,  220,  221,  222,  223,  224,  225,  226,  227,  228,  229,  230,  231,  232
  233,  234,  235,  236,  237,  238,  239,  240,  241,  242,  243,  244,  245,  246,  247,  248
  249,  250,  251,  252,  253,  254,  255,  256,  257,  258,  259,  260,  261,  262,  263,  264
  265,  266,  267,  268,  269,  270,  271,  272,  273,  274,  275,  276,  277,  278,  279,  280
  281,  282,  283,  284,  285,  286,  287,  288,  289,  290,  291,  292,  293,  294,  295,  296
  297,  298,  299,  300,  301,  302,  303,  304,  305,  306,  307,  308,  309,  310,  311,  312
  313,  314,  315,  316,  317,  318,  319,  320,  321,  322,  323,  324,  325,  326,  327,  328
  329,  330,  331,  332,  333,  334,  335,  336,  337,  338,  339,  340,  341,  342,  343,  344
  345,  346,  347,  348,  349,  350,  351,  352,  353,  354,  355,  356,  357,  358,  359,  360
** ... 106 like lines cut
*Elset, elset=PolySet, generate
   25,  1096,     1
*Nset, nset=_PickedSet12, internal
    3,    4,   39,   40,   41,   42,   43,   44,   45,   46,   47,   48,   49,   50,   51,   52
   53,   54,   55,   56,  623,  624,  625,  626,  627,  628,  629,  630,  631,  632,  633,  634
  635,  636,  637,  638,  639,  640, 1726, 1727, 1728, 1729
*Elset, elset=_PickedSet12, internal, generate
  9,  24,   1
*Nset, nset=_PickedSet17, internal
   21,   22,  585,  586,  587,  588,  589,  590,  591,  592,  593,  594,  595,  596,  597,  598
 1705, 1706, 1707, 1708, 1709, 1710, 1711, 1712, 1713, 1714, 2132
*Elset, elset=_PickedSet17, internal, generate
 1097,  1104,     1
*Nset, nset=_PickedSet22, internal
    1,    2,   25,   26,   27,   28,   29,   30,   31,   32,   33,   34,   35,   36,   37,   38
  613,  614,  615,  616,  617,  618,  619,  620,  621,  622, 1725
*Elset, elset=_PickedSet22, internal, generate
 1,  8,  1
*Nset, nset=_PickedSet27, internal
   23,   24,  599,  600,  601,  602,  603,  604,  605,  606,  607,  608,  609,  610,  611,  612
 1715, 1716, 1717, 1718, 1719, 1720, 1721, 1722, 1723, 1724, 2133
*Elset, elset=_PickedSet27, internal, generate
 1105,  1112,     1
*Elset, elset=_PolyTop_S2, internal, generate
  561,  1096,     1
*Surface, type=ELEMENT, name=PolyTop
_PolyTop_S2, S2
*Elset, elset=_PolyBot_S1, internal, generate
  25,  560,    1
*Surface, type=ELEMENT, name=PolyBot
_PolyBot_S1, S1
*Elset, elset=_Polymer-rivet-0_S4, internal
  9, 10, 12, 14, 17, 18, 20, 22
*Elset, elset=_Polymer-rivet-0_S5, internal
 10, 12, 13, 14, 18, 20, 21, 22
*Elset, elset=_Polymer-rivet-0_S3, internal
 11, 19
*Elset, elset=_Polymer-rivet-0_S6, internal
 16, 24
*Surface, type=ELEMENT, name=Polymer-rivet-0
_Polymer-rivet-0_S4, S4
_Polymer-rivet-0_S5, S5
_Polymer-rivet-0_S6, S6
_Polymer-rivet-0_S3, S3
*Elset, elset=_Polymer-rivet-top-0_S1, internal, generate
 17,  24,   1
*Surface, type=ELEMENT, name=Polymer-rivet-top-0
_Polymer-rivet-top-0_S1, S1
*Elset, elset=_Polymer-rivet-bot-0_S2, internal, generate
  9,  16,   1
*Surface, type=ELEMENT, name=Polymer-rivet-bot-0
_Polymer-rivet-bot-0_S2, S2
*Elset, elset=_Polymer-rivet-1_S4, internal, generate
 1097,  1103,     2
*Elset, elset=_Polymer-rivet-1_S5, internal, generate
 1097,  1103,     2
*Elset, elset=_Polymer-rivet-1_S3, internal, generate
 1098,  1104,     2
*Elset, elset=_Polymer-rivet-1_S6, internal, generate
 1098,  1104,     2
*Surface, type=ELEMENT, name=Polymer-rivet-1
_Polymer-rivet-1_S4, S4
_Polymer-rivet-1_S5, S5
_Polymer-rivet-1_S6, S6
_Polymer-rivet-1_S3, S3
*Elset, elset=_Polymer-rivet-top-1_S1, internal, generate
 1101,  1104,     1
*Surface, type=ELEMENT, name=Polymer-rivet-top-1
_Polymer-rivet-top-1_S1, S1
*Elset, elset=_Polymer-rivet-bot-1_S2, internal, generate
 1097,  1100,     1
*Surface, type=ELEMENT, name=Polymer-rivet-bot-1
_Polymer-rivet-bot-1_S2, S2
*Elset, elset=_Polymer-rivet-2_S4, internal
 1, 4, 5, 8
*Elset, elset=_Polymer-rivet-2_S5, internal
 1, 4, 5, 8
*Elset, elset=_Polymer-rivet-2_S3, internal
 2, 3, 6, 7
*Elset, elset=_Polymer-rivet-2_S6, internal
 2, 3, 6, 7
*Surface, type=ELEMENT, name=Polymer-rivet-2
_Polymer-rivet-2_S4, S4
_Polymer-rivet-2_S5, S5
_Polymer-rivet-2_S6, S6
_Polymer-rivet-2_S3, S3
*Elset, elset=_Polymer-rivet-top-2_S1, internal, generate
 5,  8,  1
*Surface, type=ELEMENT, name=Polymer-rivet-top-2
_Polymer-rivet-top-2_S1, S1
*Elset, elset=_Polymer-rivet-bot-2_S2, internal, generate
 1,  4,  1
*Surface, type=ELEMENT, name=Polymer-rivet-bot-2
_Polymer-rivet-bot-2_S2, S2
*Elset, elset=_Polymer-rivet-3_S4, internal
 1105, 1107, 1108, 1109, 1111, 1112
*Elset, elset=_Polymer-rivet-3_S5, internal
 1105, 1107, 1108, 1109, 1111, 1112
*Elset, elset=_Polymer-rivet-3_S3, internal
 1106, 1110
*Elset, elset=_Polymer-rivet-3_S6, internal
 1106, 1110
*Surface, type=ELEMENT, name=Polymer-rivet-3
_Polymer-rivet-3_S4, S4
_Polymer-rivet-3_S5, S5
_Polymer-rivet-3_S6, S6
_Polymer-rivet-3_S3, S3
*Elset, elset=_Polymer-rivet-top-3_S1, internal, generate
 1109,  1112,     1
*Surface, type=ELEMENT, name=Polymer-rivet-top-3
_Polymer-rivet-top-3_S1, S1
*Elset, elset=_Polymer-rivet-bot-3_S2, internal, generate
 1105,  1108,     1
*Surface, type=ELEMENT, name=Polymer-rivet-bot-3
_Polymer-rivet-bot-3_S2, S2
** Section: PolySec
*Solid Section, elset=_PickedSet22, material=Polymer
,
** Section: PolySec
*Solid Section, elset=_PickedSet12, material=Polymer
,
** Section: PolySec
*Solid Section, elset=PolySet, material=Polymer
,
** Section: PolySec
*Solid Section, elset=_PickedSet17, material=Polymer
,
** Section: PolySec
*Solid Section, elset=_PickedSet27, material=Polymer
,
*End Part
**  
**
** ASSEMBLY
**
*Assembly, name=Assembly
**  
*Instance, name=Polymer-1, part=Polymer
*End Instance
**  
*Instance, name=Battery-1, part=Battery
         10.,          10.,           0.
*End Instance
**  
*Instance, name=CF-1, part=CF
          0.,           0.,         -0.4
*End Instance
**  
*Instance, name=CF-2, part=CF
          0.,           0.,          5.4
*End Instance
**  
*Node
      1,          55.,          55.,    5.4000001
*Nset, nset=VerticalSupport, instance=CF-1
   3,   4,   7,   8,  62,  63,  64,  65,  66,  67,  68,  69,  70,  71,  72,  73
  74,  75,  76,  77,  78,  79,  80,  81,  82,  83,  84,  85,  86,  87,  88,  89
  90,  91,  92,  93,  94,  95,  96,  97, 170, 171, 172, 173, 174, 175, 176, 177
 178, 179, 180, 181, 182, 183, 184, 185, 186, 187, 188, 189, 190, 191, 192, 193
 194, 195, 196, 197, 198, 199, 200, 201, 202, 203, 204, 205
*Elset, elset=VerticalSupport, instance=CF-1
  630,  631,  632,  633,  634,  635,  636,  637,  638,  639,  640,  641,  642,  643,  644,  645
  646,  647,  648,  649,  650,  651,  652,  653,  654,  655,  656,  657,  658,  659,  660,  661
  662,  663,  664,  665,  666, 1370, 1371, 1372, 1373, 1374, 1375, 1376, 1377, 1378, 1379, 1380
 1381, 1382, 1383, 1384, 1385, 1386, 1387, 1388, 1389, 1390, 1391, 1392, 1393, 1394, 1395, 1396
 1397, 1398, 1399, 1400, 1401, 1402, 1403, 1404, 1405, 1406
*Nset, nset=XDirSupport, instance=CF-1
 3,
*Nset, nset=YDirSupport, instance=CF-1
 7,
*Nset, nset=rigid_loading_set, instance=CF-2
   1,   2,   5,   6,   9,  10,  11,  12,  13,  14,  15,  16,  17,  18,  19,  20
  21,  22,  23,  24,  25,  26,  27,  28,  29,  30,  31,  32,  33,  34,  35,  36
  37,  38,  39,  40,  41,  42,  43,  44, 115, 116, 117, 118, 119, 120, 121, 122
 123, 124, 125, 126, 127, 128, 129, 130, 131, 132, 133, 134, 135, 136, 137, 138
 139, 140, 141, 142, 143, 144, 145, 146, 147, 148, 149, 150, 151, 152, 835, 836
 837, 838, 839, 840, 841, 842, 843, 844, 845, 846, 847, 848, 849, 850, 851, 852
 853, 854, 855, 856, 857, 858, 859, 860, 861, 862, 863, 864, 865, 866, 867, 868
 869, 870
*Elset, elset=rigid_loading_set, instance=CF-2, generate
 667,  740,    1
*Nset, nset=_PickedSet14, internal
 1,
*Elset, elset=__PickedSurf15_SPOS, internal, instance=CF-2, generate
 667,  740,    1
*Surface, type=ELEMENT, name=_PickedSurf15, internal
__PickedSurf15_SPOS, SPOS
** Constraint: BatPoly-0
*Tie, name=BatPoly-0, adjust=no, position tolerance=1.
Battery-1.Battery-rivet-0, Polymer-1.Polymer-rivet-0
** Constraint: BatPoly-1
*Tie, name=BatPoly-1, adjust=no, position tolerance=1.
Battery-1.Battery-rivet-1, Polymer-1.Polymer-rivet-1
** Constraint: BatPoly-2
*Tie, name=BatPoly-2, adjust=no, position tolerance=1.
Battery-1.Battery-rivet-2, Polymer-1.Polymer-rivet-2
** Constraint: BatPoly-3
*Tie, name=BatPoly-3, adjust=no, position tolerance=1.
Battery-1.Battery-rivet-3, Polymer-1.Polymer-rivet-3
** Constraint: CF1Poly
*Tie, name=CF1Poly, adjust=no, position tolerance=1.
Polymer-1.PolyBot, CF-1.CFtop
** Constraint: CF1Poly-Rivet-0
*Tie, name=CF1Poly-Rivet-0, adjust=no, position tolerance=1.
Polymer-1.Polymer-rivet-bot-0, CF-1.CFtop
** Constraint: CF1Poly-Rivet-1
*Tie, name=CF1Poly-Rivet-1, adjust=no, position tolerance=1.
Polymer-1.Polymer-rivet-bot-1, CF-1.CFtop
** Constraint: CF1Poly-Rivet-2
*Tie, name=CF1Poly-Rivet-2, adjust=no, position tolerance=1.
Polymer-1.Polymer-rivet-bot-2, CF-1.CFtop
** Constraint: CF1Poly-Rivet-3
*Tie, name=CF1Poly-Rivet-3, adjust=no, position tolerance=1.
Polymer-1.Polymer-rivet-bot-3, CF-1.CFtop
** Constraint: CF2Poly
*Tie, name=CF2Poly, adjust=no, position tolerance=1.
Polymer-1.PolyTop, CF-2.CFbot
** Constraint: CF2Poly-Rivet-0
*Tie, name=CF2Poly-Rivet-0, adjust=no, position tolerance=1.
Polymer-1.Polymer-rivet-top-0, CF-2.CFbot
** Constraint: CF2Poly-Rivet-1
*Tie, name=CF2Poly-Rivet-1, adjust=no, position tolerance=1.
Polymer-1.Polymer-rivet-top-1, CF-2.CFbot
** Constraint: CF2Poly-Rivet-2
*Tie, name=CF2Poly-Rivet-2, adjust=no, position tolerance=1.
Polymer-1.Polymer-rivet-top-2, CF-2.CFbot
** Constraint: CF2Poly-Rivet-3
*Tie, name=CF2Poly-Rivet-3, adjust=no, position tolerance=1.
Polymer-1.Polymer-rivet-top-3, CF-2.CFbot
** Constraint: LoadingRigidBody
*Rigid Body, ref node=_PickedSet14, tie nset=rigid_loading_set
*End Assembly
** 
** MATERIALS
** 
*Material, name=BatOrtho
*Elastic, type=ENGINEERING CONSTANTS
1090., 109., 500., 0.15, 0.15, 0.15, 474., 474.
 474.,
*Material, name=CF_material
*Elastic, type=ENGINEERING CONSTANTS
30420.,  4023.,  4023.,   0.29,   0.29, 0.3928,  2081.,  2081.
  1440.,
*Material, name=Polymer
*Elastic
500., 0.3
** 
** INTERACTION PROPERTIES
** 
*Surface Interaction, name=NormCont
1.,
*Friction, slip tolerance=0.005
 0.3,
*Surface Behavior, pressure-overclosure=HARD
** 
** INTERACTIONS
** 
** Interaction: CF1Bat
*Contact Pair, interaction=NormCont, type=SURFACE TO SURFACE
Battery-1.BatBot, CF-1.CFtop
** Interaction: CF2Bat
*Contact Pair, interaction=NormCont, type=SURFACE TO SURFACE
Battery-1.BatTop, CF-2.CFbot
** ----------------------------------------------------------------
** 
** STEP: Loading
** 
*Step, name=Loading, nlgeom=NO
*Static
1., 1., 1e-05, 1.
** 
** BOUNDARY CONDITIONS
** 
** Name: VerticalSupport Type: Displacement/Rotation
*Boundary
VerticalSupport, 3, 3
** Name: XDirSupport Type: Displacement/Rotation
*Boundary
XDirSupport, 1, 1
** Name: YDirSupport Type: Displacement/Rotation
*Boundary
YDirSupport, 2, 2
** 
** LOADS
** 
** Name: Load-1   Type: Pressure
*Dsload
_PickedSurf15, P, 0.181818
** 
** OUTPUT REQUESTS
** 
*Restart, write, frequency=0
** 
** FIELD OUTPUT: F-Output-1
** 
*Output, field
*Node Output
U, UR, UT
*Element Output, directions=YES
EVOL, 
** 
** HISTORY OUTPUT: H-Output-1
** 
*Output, history, variable=PRESELECT
*End Step
