*Heading
** Job name: Job-45 Model name: Model-1
** Generated by: Abaqus/CAE 2019
*Preprint, echo=NO, model=NO, history=NO, contact=NO
**
** PARTS
**
*Part, name=Battery
*Node
      1,   63.7665215,   47.7963181,           0.
      2,   61.0349045,   48.9277916,           0.
      3,   58.3032913,   47.7963181,           0.
      4,   57.1718178,   45.0647011,           0.
      5,   58.3032913,   42.3330879,           0.
      6,   61.0349045,   41.2016144,           0.
      7,   63.7665215,   42.3330879,           0.
      8,    64.897995,   45.0647011,           0.
      9,   11.0467081,   73.5499039,           0.
     10,   8.82265282,   75.1657715,           0.
     11,    6.0735693,   75.1657715,           0.
     12,   3.84951353,   73.5499039,           0.
     13,           3.,   70.9353714,           0.
     14,   3.84951353,   68.3208313,           0.
     15,    6.0735693,   66.7049637,           0.
     16,   8.82265282,   66.7049637,           0.
     17,   11.0467081,   68.3208313,           0.
     18,   11.8962221,   70.9353714,           0.
     19,   76.2521896,   11.2310247,           0.
     20,   74.2436829,   13.2395344,           0.
** ... 3712 like lines cut
*Element, type=C3D8R
   1,  106,  236,  237,  107, 1350, 1480, 1481, 1351
   2, 1103,  168,   10,    9, 2347, 1412, 1254, 1253
   3, 1107,  167,   18,  980, 2351, 1411, 1262, 2224
   4,  496,  400,  185,  287, 1740, 1644, 1429, 1531
   5,  225,   83,   82,  224, 1469, 1327, 1326, 1468
   6,  413,  216,  293,  412, 1657, 1460, 1537, 1656
   7, 1108,  176,   24,  177, 2352, 1420, 1268, 1421
   8,  306,   52,   51, 1099, 1550, 1296, 1295, 2343
   9,   49,   26,  180,   50, 1293, 1270, 1424, 1294
  10,   27,   48,   47,   28, 1271, 1292, 1291, 1272
  11, 1117,  291,  273,  329, 2361, 1535, 1517, 1573
  12,   20,   19,  587,  175, 1264, 1263, 1831, 1419
  13,  153,  193,  271,  154, 1397, 1437, 1515, 1398
  14,  152,  194,  193,  153, 1396, 1438, 1437, 1397
  15,   38,   37,  276,  159, 1282, 1281, 1520, 1403
  16,  144,  263,  264,  145, 1388, 1507, 1508, 1389
  17,  186,  285,  184,    7, 1430, 1529, 1428, 1251
  18,  177,   24,   23, 1024, 1421, 1268, 1267, 2268
  19,  184,  285,  501,  399, 1428, 1529, 1745, 1643
  20,  243,  115,  114,  242, 1487, 1359, 1358, 1486
** ... 2316 like lines cut
*Nset, nset=Batset, generate
    1,  3732,     1
*Elset, elset=Batset, generate
    1,  2336,     1
*Elset, elset=_BatTop_S2, internal, generate
 1169,  2336,     1
*Surface, type=ELEMENT, name=BatTop
_BatTop_S2, S2
*Elset, elset=_BatBot_S1, internal, generate
    1,  1168,     1
*Surface, type=ELEMENT, name=BatBot
_BatBot_S1, S1
*Elset, elset=_Battery-rivet-0_S3, internal
   15, 1183
*Elset, elset=_Battery-rivet-0_S4, internal
   39,   50,  112,  150,  155, 1207, 1218, 1280, 1318, 1323
*Elset, elset=_Battery-rivet-0_S5, internal
  114,  151, 1282, 1319
*Surface, type=ELEMENT, name=Battery-rivet-0
_Battery-rivet-0_S3, S3
_Battery-rivet-0_S4, S4
_Battery-rivet-0_S5, S5
*Elset, elset=_Battery-rivet-1_S6, internal
   10,   57, 1178, 1225
*Elset, elset=_Battery-rivet-1_S3, internal
   12, 1180
*Elset, elset=_Battery-rivet-1_S4, internal
   18,  137,  169,  171,  175,  182, 1186, 1305, 1337, 1339, 1343, 1350
*Elset, elset=_Battery-rivet-1_S5, internal
  170,  176,  177, 1338, 1344, 1345
*Surface, type=ELEMENT, name=Battery-rivet-1
_Battery-rivet-1_S6, S6
_Battery-rivet-1_S3, S3
_Battery-rivet-1_S4, S4
_Battery-rivet-1_S5, S5
*Elset, elset=_Battery-rivet-2_S5, internal
    2,  161, 1170, 1329
*Elset, elset=_Battery-rivet-2_S6, internal
   33,   92, 1201, 1260
*Elset, elset=_Battery-rivet-2_S3, internal
   47, 1215
*Elset, elset=_Battery-rivet-2_S4, internal
   83,   91,  158,  160,  162, 1251, 1259, 1326, 1328, 1330
*Surface, type=ELEMENT, name=Battery-rivet-2
_Battery-rivet-2_S5, S5
_Battery-rivet-2_S6, S6
_Battery-rivet-2_S4, S4
_Battery-rivet-2_S3, S3
*Elset, elset=_Battery-rivet-3_S3, internal
   26,  149,  173, 1194, 1317, 1341
*Elset, elset=_Battery-rivet-3_S6, internal
  174, 1342
*Elset, elset=_Battery-rivet-3_S4, internal
  184,  185,  186,  188, 1352, 1353, 1354, 1356
*Surface, type=ELEMENT, name=Battery-rivet-3
_Battery-rivet-3_S3, S3
_Battery-rivet-3_S6, S6
_Battery-rivet-3_S4, S4
*Orientation, name=Ori-1
1., 0., 0., 0., 1., 0.
3, 0.
** Section: BatOrtho
*Solid Section, elset=Batset, orientation=Ori-1, material=BatOrtho
,
*End Part
**  
*Part, name=CF
*Node
      1,         52.5,           0.,           0.
      2,         52.5,         110.,           0.
      3,           0.,         110.,           0.
      4,           0.,           0.,           0.
      5,         57.5,           0.,           0.
      6,         57.5,         110.,           0.
      7,         110.,           0.,           0.
      8,         110.,         110.,           0.
      9,         52.5,   2.97297287,           0.
     10,         52.5,   5.94594574,           0.
     11,         52.5,   8.91891861,           0.
     12,         52.5,   11.8918915,           0.
     13,         52.5,   14.8648653,           0.
     14,         52.5,   17.8378372,           0.
     15,         52.5,   20.8108101,           0.
     16,         52.5,    23.783783,           0.
     17,         52.5,   26.7567558,           0.
     18,         52.5,   29.7297306,           0.
     19,         52.5,   32.7027016,           0.
     20,         52.5,   35.6756744,           0.
** ... 1462 like lines cut
*Element, type=S4R
  1,   1,   9, 223, 114
  2,   9,  10, 224, 223
  3,  10,  11, 225, 224
  4,  11,  12, 226, 225
  5,  12,  13, 227, 226
  6,  13,  14, 228, 227
  7,  14,  15, 229, 228
  8,  15,  16, 230, 229
  9,  16,  17, 231, 230
 10,  17,  18, 232, 231
 11,  18,  19, 233, 232
 12,  19,  20, 234, 233
 13,  20,  21, 235, 234
 14,  21,  22, 236, 235
 15,  22,  23, 237, 236
 16,  23,  24, 238, 237
 17,  24,  25, 239, 238
 18,  25,  26, 240, 239
 19,  26,  27, 241, 240
 20,  27,  28, 242, 241
** ... 1386 like lines cut
*Nset, nset=CF_set, generate
    1,  1482,     1
*Elset, elset=CF_set, generate
    1,  1406,     1
*Elset, elset=_CFtop_SPOS, internal, generate
    1,  1406,     1
*Surface, type=ELEMENT, name=CFtop
_CFtop_SPOS, SPOS
*Elset, elset=_CFbot_SNEG, internal, generate
    1,  1406,     1
*Surface, type=ELEMENT, name=CFbot
_CFbot_SNEG, SNEG
** Section: CF_sec
*Shell Section, elset=CF_set, composite
0.2, 3, CF_material, 0.
0.2, 3, CF_material, 90.
0.2, 3, CF_material, 90.
0.2, 3, CF_material, 0.
*End Part
**  
*Part, name=Polymer
*Node
      1,   21.8962231,   80.9353714,           0.
      2,   21.8962231,   80.9353714,           5.
      3,   85.3935928,    86.771492,           0.
      4,   85.3935928,    86.771492,           5.
      5,          10.,         100.,           0.
      6,          10.,          10.,           0.
      7,         100.,          10.,           0.
      8,         100.,         100.,           0.
      9,         110.,           0.,           0.
     10,           0.,           0.,           0.
     11,           0.,         110.,           0.
     12,         110.,         110.,           0.
     13,          10.,          10.,           5.
     14,          10.,         100.,           5.
     15,         100.,         100.,           5.
     16,         100.,          10.,           5.
     17,           0.,         110.,           5.
     18,           0.,           0.,           5.
     19,         110.,           0.,           5.
     20,         110.,         110.,           5.
** ... 2200 like lines cut
*Element, type=C3D8R
 1, 1794,  647,  646,  645,  628,   32,   31,   30
 2, 1794, 1788, 1789, 1787,  628,  622,  623,  621
 3, 1787,  648,  647, 1794,  621,   33,   32,  628
 4, 1788, 1793, 1795, 1789,  622,  627,  629,  623
 5, 1791, 1790, 1787, 1789,  625,  624,  621,  623
 6, 1790,  639,  648, 1787,  624,    1,   33,  621
 7,  645,  644, 1788, 1794,   30,   29,  622,  628
 8,  644,  643, 1793, 1788,   29,   28,  627,  622
 9, 1793,  643,  642, 1795,  627,   28,   27,  629
10, 1790, 1791,  640,  639,  624,  625,   25,    1
11, 1791, 1792,  641,  640,  625,  626,   26,   25
12,  641, 1792, 1795,  642,   26,  626,  629,   27
13, 1789, 1795, 1792, 1791,  623,  629,  626,  625
14,  637,   35,   36,   37, 1794,  647,  646,  645
15,  637,  631,  632,  630, 1794, 1788, 1789, 1787
16,  630,   34,   35,  637, 1787,  648,  647, 1794
17,  631,  636,  638,  632, 1788, 1793, 1795, 1789
18,  634,  633,  630,  632, 1791, 1790, 1787, 1789
19,  633,    2,   34,  630, 1790,  639,  648, 1787
20,   37,   38,  631,  637,  645,  644, 1788, 1794
** ... 1146 like lines cut
*Nset, nset=PolySet
    5,    6,    7,    8,    9,   10,   11,   12,   13,   14,   15,   16,   17,   18,   19,   20
   57,   58,   59,   60,   61,   62,   63,   64,   65,   66,   67,   68,   69,   70,   71,   72
   73,   74,   75,   76,   77,   78,   79,   80,   81,   82,   83,   84,   85,   86,   87,   88
   89,   90,   91,   92,   93,   94,   95,   96,   97,   98,   99,  100,  101,  102,  103,  104
  105,  106,  107,  108,  109,  110,  111,  112,  113,  114,  115,  116,  117,  118,  119,  120
  121,  122,  123,  124,  125,  126,  127,  128,  129,  130,  131,  132,  133,  134,  135,  136
  137,  138,  139,  140,  141,  142,  143,  144,  145,  146,  147,  148,  149,  150,  151,  152
  153,  154,  155,  156,  157,  158,  159,  160,  161,  162,  163,  164,  165,  166,  167,  168
  169,  170,  171,  172,  173,  174,  175,  176,  177,  178,  179,  180,  181,  182,  183,  184
  185,  186,  187,  188,  189,  190,  191,  192,  193,  194,  195,  196,  197,  198,  199,  200
  201,  202,  203,  204,  205,  206,  207,  208,  209,  210,  211,  212,  213,  214,  215,  216
  217,  218,  219,  220,  221,  222,  223,  224,  225,  226,  227,  228,  229,  230,  231,  232
  233,  234,  235,  236,  237,  238,  239,  240,  241,  242,  243,  244,  245,  246,  247,  248
  249,  250,  251,  252,  253,  254,  255,  256,  257,  258,  259,  260,  261,  262,  263,  264
  265,  266,  267,  268,  269,  270,  271,  272,  273,  274,  275,  276,  277,  278,  279,  280
  281,  282,  283,  284,  285,  286,  287,  288,  289,  290,  291,  292,  293,  294,  295,  296
  297,  298,  299,  300,  301,  302,  303,  304,  305,  306,  307,  308,  309,  310,  311,  312
  313,  314,  315,  316,  317,  318,  319,  320,  321,  322,  323,  324,  325,  326,  327,  328
  329,  330,  331,  332,  333,  334,  335,  336,  337,  338,  339,  340,  341,  342,  343,  344
  345,  346,  347,  348,  349,  350,  351,  352,  353,  354,  355,  356,  357,  358,  359,  360
** ... 106 like lines cut
*Elset, elset=PolySet, generate
   35,  1106,     1
*Nset, nset=_PickedSet12, internal
    3,    4,   43,   44,   45,   46,   47,   48,   49,   50,   51,   52,   53,   54,   55,   56
  649,  650,  651,  652,  653,  654,  655,  656,  657,  658, 1796
*Elset, elset=_PickedSet12, internal, generate
 27,  34,   1
*Nset, nset=_PickedSet17, internal
   21,   22,  585,  586,  587,  588,  589,  590,  591,  592,  593,  594,  595,  596,  597,  598
  599,  600,  601,  602,  603,  604,  605,  606, 1723, 1724, 1725, 1726, 1727, 1728, 1729, 1730
 1731, 1732, 1733, 1734, 1735, 1736, 1737, 1738, 1739, 1740, 1741, 1742, 1743, 1744, 1745, 1746
 1747, 1748, 1749, 1750, 1751, 1752, 1753, 1754, 1755, 1756, 1757, 1758, 1759, 1760, 1761, 1762
 1763, 1764, 1765, 1766, 1767, 1768, 1769, 1770, 1771, 1772, 1773, 1774, 1775, 1776, 2199, 2200
 2201, 2202, 2203, 2204, 2205, 2206, 2207, 2208, 2209, 2210, 2211, 2212, 2213, 2214, 2215, 2216
 2217, 2218, 2219
*Elset, elset=_PickedSet17, internal, generate
 1107,  1158,     1
*Nset, nset=_PickedSet22, internal
    1,    2,   25,   26,   27,   28,   29,   30,   31,   32,   33,   34,   35,   36,   37,   38
   39,   40,   41,   42,  621,  622,  623,  624,  625,  626,  627,  628,  629,  630,  631,  632
  633,  634,  635,  636,  637,  638,  639,  640,  641,  642,  643,  644,  645,  646,  647,  648
 1787, 1788, 1789, 1790, 1791, 1792, 1793, 1794, 1795
*Elset, elset=_PickedSet22, internal, generate
  1,  26,   1
*Nset, nset=_PickedSet27, internal
   23,   24,  607,  608,  609,  610,  611,  612,  613,  614,  615,  616,  617,  618,  619,  620
 1777, 1778, 1779, 1780, 1781, 1782, 1783, 1784, 1785, 1786, 2220
*Elset, elset=_PickedSet27, internal, generate
 1159,  1166,     1
*Elset, elset=_PolyTop_S2, internal, generate
  571,  1106,     1
*Surface, type=ELEMENT, name=PolyTop
_PolyTop_S2, S2
*Elset, elset=_PolyBot_S1, internal, generate
  35,  570,    1
*Surface, type=ELEMENT, name=PolyBot
_PolyBot_S1, S1
*Elset, elset=_Polymer-rivet-0_S4, internal
 27, 30, 31, 34
*Elset, elset=_Polymer-rivet-0_S5, internal
 27, 30, 31, 34
*Elset, elset=_Polymer-rivet-0_S3, internal
 28, 29, 32, 33
*Elset, elset=_Polymer-rivet-0_S6, internal
 28, 29, 32, 33
*Surface, type=ELEMENT, name=Polymer-rivet-0
_Polymer-rivet-0_S4, S4
_Polymer-rivet-0_S5, S5
_Polymer-rivet-0_S6, S6
_Polymer-rivet-0_S3, S3
*Elset, elset=_Polymer-rivet-top-0_S1, internal, generate
 31,  34,   1
*Surface, type=ELEMENT, name=Polymer-rivet-top-0
_Polymer-rivet-top-0_S1, S1
*Elset, elset=_Polymer-rivet-bot-0_S2, internal, generate
 27,  30,   1
*Surface, type=ELEMENT, name=Polymer-rivet-bot-0
_Polymer-rivet-bot-0_S2, S2
*Elset, elset=_Polymer-rivet-1_S3, internal
 1108, 1117, 1121, 1124, 1134, 1143, 1147, 1150
*Elset, elset=_Polymer-rivet-1_S6, internal
 1110, 1118, 1119, 1126, 1128, 1136, 1144, 1145, 1152, 1154
*Elset, elset=_Polymer-rivet-1_S5, internal
 1115, 1120, 1122, 1141, 1146, 1148
*Surface, type=ELEMENT, name=Polymer-rivet-1
_Polymer-rivet-1_S3, S3
_Polymer-rivet-1_S6, S6
_Polymer-rivet-1_S5, S5
*Elset, elset=_Polymer-rivet-top-1_S1, internal, generate
 1133,  1158,     1
*Surface, type=ELEMENT, name=Polymer-rivet-top-1
_Polymer-rivet-top-1_S1, S1
*Elset, elset=_Polymer-rivet-bot-1_S2, internal, generate
 1107,  1132,     1
*Surface, type=ELEMENT, name=Polymer-rivet-bot-1
_Polymer-rivet-bot-1_S2, S2
*Elset, elset=_Polymer-rivet-2_S4, internal
  1,  3,  6,  9, 14, 16, 19, 22
*Elset, elset=_Polymer-rivet-2_S5, internal
  1, 10, 11, 14, 23, 24
*Elset, elset=_Polymer-rivet-2_S3, internal
  7,  8, 20, 21
*Elset, elset=_Polymer-rivet-2_S6, internal
 12, 25
*Surface, type=ELEMENT, name=Polymer-rivet-2
_Polymer-rivet-2_S4, S4
_Polymer-rivet-2_S5, S5
_Polymer-rivet-2_S6, S6
_Polymer-rivet-2_S3, S3
*Elset, elset=_Polymer-rivet-top-2_S1, internal, generate
 14,  26,   1
*Surface, type=ELEMENT, name=Polymer-rivet-top-2
_Polymer-rivet-top-2_S1, S1
*Elset, elset=_Polymer-rivet-bot-2_S2, internal, generate
  1,  13,   1
*Surface, type=ELEMENT, name=Polymer-rivet-bot-2
_Polymer-rivet-bot-2_S2, S2
*Elset, elset=_Polymer-rivet-3_S3, internal
 1159, 1160, 1161, 1163, 1164, 1165
*Elset, elset=_Polymer-rivet-3_S6, internal
 1159, 1160, 1161, 1163, 1164, 1165
*Elset, elset=_Polymer-rivet-3_S4, internal
 1162, 1166
*Elset, elset=_Polymer-rivet-3_S5, internal
 1162, 1166
*Surface, type=ELEMENT, name=Polymer-rivet-3
_Polymer-rivet-3_S3, S3
_Polymer-rivet-3_S6, S6
_Polymer-rivet-3_S4, S4
_Polymer-rivet-3_S5, S5
*Elset, elset=_Polymer-rivet-top-3_S1, internal, generate
 1163,  1166,     1
*Surface, type=ELEMENT, name=Polymer-rivet-top-3
_Polymer-rivet-top-3_S1, S1
*Elset, elset=_Polymer-rivet-bot-3_S2, internal, generate
 1159,  1162,     1
*Surface, type=ELEMENT, name=Polymer-rivet-bot-3
_Polymer-rivet-bot-3_S2, S2
** Section: PolySec
*Solid Section, elset=_PickedSet22, material=Polymer
,
** Section: PolySec
*Solid Section, elset=_PickedSet12, material=Polymer
,
** Section: PolySec
*Solid Section, elset=PolySet, material=Polymer
,
** Section: PolySec
*Solid Section, elset=_PickedSet17, material=Polymer
,
** Section: PolySec
*Solid Section, elset=_PickedSet27, material=Polymer
,
*End Part
**  
**
** ASSEMBLY
**
*Assembly, name=Assembly
**  
*Instance, name=Polymer-1, part=Polymer
*End Instance
**  
*Instance, name=Battery-1, part=Battery
         10.,          10.,           0.
*End Instance
**  
*Instance, name=CF-1, part=CF
          0.,           0.,         -0.4
*End Instance
**  
*Instance, name=CF-2, part=CF
          0.,           0.,          5.4
*End Instance
**  
*Node
      1,          55.,          55.,    5.4000001
*Nset, nset=VerticalSupport, instance=CF-1
   3,   4,   7,   8,  62,  63,  64,  65,  66,  67,  68,  69,  70,  71,  72,  73
  74,  75,  76,  77,  78,  79,  80,  81,  82,  83,  84,  85,  86,  87,  88,  89
  90,  91,  92,  93,  94,  95,  96,  97, 170, 171, 172, 173, 174, 175, 176, 177
 178, 179, 180, 181, 182, 183, 184, 185, 186, 187, 188, 189, 190, 191, 192, 193
 194, 195, 196, 197, 198, 199, 200, 201, 202, 203, 204, 205
*Elset, elset=VerticalSupport, instance=CF-1
  630,  631,  632,  633,  634,  635,  636,  637,  638,  639,  640,  641,  642,  643,  644,  645
  646,  647,  648,  649,  650,  651,  652,  653,  654,  655,  656,  657,  658,  659,  660,  661
  662,  663,  664,  665,  666, 1370, 1371, 1372, 1373, 1374, 1375, 1376, 1377, 1378, 1379, 1380
 1381, 1382, 1383, 1384, 1385, 1386, 1387, 1388, 1389, 1390, 1391, 1392, 1393, 1394, 1395, 1396
 1397, 1398, 1399, 1400, 1401, 1402, 1403, 1404, 1405, 1406
*Nset, nset=XDirSupport, instance=CF-1
 3,
*Nset, nset=YDirSupport, instance=CF-1
 7,
*Nset, nset=rigid_loading_set, instance=CF-2
   1,   2,   5,   6,   9,  10,  11,  12,  13,  14,  15,  16,  17,  18,  19,  20
  21,  22,  23,  24,  25,  26,  27,  28,  29,  30,  31,  32,  33,  34,  35,  36
  37,  38,  39,  40,  41,  42,  43,  44, 115, 116, 117, 118, 119, 120, 121, 122
 123, 124, 125, 126, 127, 128, 129, 130, 131, 132, 133, 134, 135, 136, 137, 138
 139, 140, 141, 142, 143, 144, 145, 146, 147, 148, 149, 150, 151, 152, 835, 836
 837, 838, 839, 840, 841, 842, 843, 844, 845, 846, 847, 848, 849, 850, 851, 852
 853, 854, 855, 856, 857, 858, 859, 860, 861, 862, 863, 864, 865, 866, 867, 868
 869, 870
*Elset, elset=rigid_loading_set, instance=CF-2, generate
 667,  740,    1
*Nset, nset=_PickedSet14, internal
 1,
*Elset, elset=__PickedSurf15_SPOS, internal, instance=CF-2, generate
 667,  740,    1
*Surface, type=ELEMENT, name=_PickedSurf15, internal
__PickedSurf15_SPOS, SPOS
** Constraint: BatPoly-0
*Tie, name=BatPoly-0, adjust=no, position tolerance=1.
Battery-1.Battery-rivet-0, Polymer-1.Polymer-rivet-0
** Constraint: BatPoly-1
*Tie, name=BatPoly-1, adjust=no, position tolerance=1.
Battery-1.Battery-rivet-1, Polymer-1.Polymer-rivet-1
** Constraint: BatPoly-2
*Tie, name=BatPoly-2, adjust=no, position tolerance=1.
Battery-1.Battery-rivet-2, Polymer-1.Polymer-rivet-2
** Constraint: BatPoly-3
*Tie, name=BatPoly-3, adjust=no, position tolerance=1.
Battery-1.Battery-rivet-3, Polymer-1.Polymer-rivet-3
** Constraint: CF1Poly
*Tie, name=CF1Poly, adjust=no, position tolerance=1.
Polymer-1.PolyBot, CF-1.CFtop
** Constraint: CF1Poly-Rivet-0
*Tie, name=CF1Poly-Rivet-0, adjust=no, position tolerance=1.
Polymer-1.Polymer-rivet-bot-0, CF-1.CFtop
** Constraint: CF1Poly-Rivet-1
*Tie, name=CF1Poly-Rivet-1, adjust=no, position tolerance=1.
Polymer-1.Polymer-rivet-bot-1, CF-1.CFtop
** Constraint: CF1Poly-Rivet-2
*Tie, name=CF1Poly-Rivet-2, adjust=no, position tolerance=1.
Polymer-1.Polymer-rivet-bot-2, CF-1.CFtop
** Constraint: CF1Poly-Rivet-3
*Tie, name=CF1Poly-Rivet-3, adjust=no, position tolerance=1.
Polymer-1.Polymer-rivet-bot-3, CF-1.CFtop
** Constraint: CF2Poly
*Tie, name=CF2Poly, adjust=no, position tolerance=1.
Polymer-1.PolyTop, CF-2.CFbot
** Constraint: CF2Poly-Rivet-0
*Tie, name=CF2Poly-Rivet-0, adjust=no, position tolerance=1.
Polymer-1.Polymer-rivet-top-0, CF-2.CFbot
** Constraint: CF2Poly-Rivet-1
*Tie, name=CF2Poly-Rivet-1, adjust=no, position tolerance=1.
Polymer-1.Polymer-rivet-top-1, CF-2.CFbot
** Constraint: CF2Poly-Rivet-2
*Tie, name=CF2Poly-Rivet-2, adjust=no, position tolerance=1.
Polymer-1.Polymer-rivet-top-2, CF-2.CFbot
** Constraint: CF2Poly-Rivet-3
*Tie, name=CF2Poly-Rivet-3, adjust=no, position tolerance=1.
Polymer-1.Polymer-rivet-top-3, CF-2.CFbot
** Constraint: LoadingRigidBody
*Rigid Body, ref node=_PickedSet14, tie nset=rigid_loading_set
*End Assembly
** 
** MATERIALS
** 
*Material, name=BatOrtho
*Elastic, type=ENGINEERING CONSTANTS
1090., 109., 500., 0.15, 0.15, 0.15, 474., 474.
 474.,
*Material, name=CF_material
*Elastic, type=ENGINEERING CONSTANTS
30420.,  4023.,  4023.,   0.29,   0.29, 0.3928,  2081.,  2081.
  1440.,
*Material, name=Polymer
*Elastic
500., 0.3
** 
** INTERACTION PROPERTIES
** 
*Surface Interaction, name=NormCont
1.,
*Friction, slip tolerance=0.005
 0.3,
*Surface Behavior, pressure-overclosure=HARD
** 
** INTERACTIONS
** 
** Interaction: CF1Bat
*Contact Pair, interaction=NormCont, type=SURFACE TO SURFACE
Battery-1.BatBot, CF-1.CFtop
** Interaction: CF2Bat
*Contact Pair, interaction=NormCont, type=SURFACE TO SURFACE
Battery-1.BatTop, CF-2.CFbot
** ----------------------------------------------------------------
** 
** STEP: Loading
** 
*Step, name=Loading, nlgeom=NO
*Static
1., 1., 1e-05, 1.
** 
** BOUNDARY CONDITIONS
** 
** Name: VerticalSupport Type: Displacement/Rotation
*Boundary
VerticalSupport, 3, 3
** Name: XDirSupport Type: Displacement/Rotation
*Boundary
XDirSupport, 1, 1
** Name: YDirSupport Type: Displacement/Rotation
*Boundary
YDirSupport, 2, 2
** 
** LOADS
** 
** Name: Load-1   Type: Pressure
*Dsload
_PickedSurf15, P, 0.181818
** 
** OUTPUT REQUESTS
** 
*Restart, write, frequency=0
** 
** FIELD OUTPUT: F-Output-1
** 
*Output, field
*Node Output
U, UR, UT
*Element Output, directions=YES
EVOL, 
** 
** HISTORY OUTPUT: H-Output-1
** 
*Output, history, variable=PRESELECT
*End Step
