*Heading
** Job name: Job-23 Model name: Model-1
** Generated by: Abaqus/CAE 2019
*Preprint, echo=NO, model=NO, history=NO, contact=NO
**
** PARTS
**
*Part, name=Battery
*Node
      1,   53.6384964,   23.5963497,           0.
      2,   50.0297318,   27.8971062,           0.
      3,   47.3512115,   28.8720074,           0.
      4,   41.8222656,   27.8971062,           0.
      5,   39.6387138,   26.0648899,           0.
      6,   38.2135048,   23.5963497,           0.
      7,   38.2135048,   17.9821129,           0.
      8,   39.6387138,   15.5135736,           0.
      9,   41.8222656,   13.6813574,           0.
     10,   47.3512115,   12.7064552,           0.
     11,   50.0297318,   13.6813574,           0.
     12,   53.6384964,   17.9821129,           0.
     13,   54.1334648,   20.7892323,           0.
     14,   48.9806404,   61.3203163,           0.
     15,   47.2098618,    63.540802,           0.
     16,   44.6510162,   64.7730789,           0.
     17,   39.2520638,    63.540802,           0.
     18,   37.4812851,   61.3203163,           0.
     19,   36.8493042,   58.5514183,           0.
     20,   37.4812851,   55.7825203,           0.
** ... 3622 like lines cut
*Element, type=C3D8R
   1,  143,  316,  223,  144, 1357, 1530, 1437, 1358
   2,  281,  137,  136,  279, 1495, 1351, 1350, 1493
   3,  578,  196,    3,  206, 1792, 1410, 1217, 1420
   4,   22,  188, 1073,   54, 1236, 1402, 2287, 1268
   5,    4,  204,  576,  201, 1218, 1418, 1790, 1415
   6,  828,  867,  813,  759, 2042, 2081, 2027, 1973
   7,  205, 1063,  580, 1092, 1419, 2277, 1794, 2306
   8,  883,  307,   35,  308, 2097, 1521, 1249, 1522
   9,  698,  643,  648,  719, 1912, 1857, 1862, 1933
  10, 1015,  178,   20,  182, 2229, 1392, 1234, 1396
  11,  407, 1059,  489,  571, 1621, 2273, 1703, 1785
  12,  320,   96,   95,  251, 1534, 1310, 1309, 1465
  13,  211,  247,   89,   88, 1425, 1461, 1303, 1302
  14,  243,  211,   88,   87, 1457, 1425, 1302, 1301
  15,  365,  321,  211,  243, 1579, 1535, 1425, 1457
  16,  573,   85,   84,  246, 1787, 1299, 1298, 1460
  17,  212,  241,   79,   78, 1426, 1455, 1293, 1292
  18,  577,  207,    7,  200, 1791, 1421, 1221, 1414
  19,  349,  470,  474,  327, 1563, 1684, 1688, 1541
  20,  585,  202,    6,  205, 1799, 1416, 1220, 1419
** ... 2244 like lines cut
*Nset, nset=Batset, generate
    1,  3642,     1
*Elset, elset=Batset, generate
    1,  2264,     1
*Elset, elset=_BatTop_S2, internal, generate
 1133,  2264,     1
*Surface, type=ELEMENT, name=BatTop
_BatTop_S2, S2
*Elset, elset=_BatBot_S1, internal, generate
    1,  1132,     1
*Surface, type=ELEMENT, name=BatBot
_BatBot_S1, S1
*Elset, elset=_Battery-rivet-0_S3, internal
   88,   90,  197,  211,  399, 1220, 1222, 1329, 1343, 1531
*Elset, elset=_Battery-rivet-0_S6, internal
   91,  369, 1223, 1501
*Elset, elset=_Battery-rivet-0_S4, internal
  305,  306, 1437, 1438
*Elset, elset=_Battery-rivet-0_S5, internal
  308, 1440
*Surface, type=ELEMENT, name=Battery-rivet-0
_Battery-rivet-0_S3, S3
_Battery-rivet-0_S6, S6
_Battery-rivet-0_S4, S4
_Battery-rivet-0_S5, S5
*Elset, elset=_Battery-rivet-1_S4, internal
   25,   28,   62,   68,  156, 1157, 1160, 1194, 1200, 1288
*Elset, elset=_Battery-rivet-1_S6, internal
   66, 1198
*Elset, elset=_Battery-rivet-1_S5, internal
  160,  316, 1292, 1448
*Surface, type=ELEMENT, name=Battery-rivet-1
_Battery-rivet-1_S4, S4
_Battery-rivet-1_S6, S6
_Battery-rivet-1_S5, S5
*Elset, elset=_Battery-rivet-2_S6, internal
    4, 1136
*Elset, elset=_Battery-rivet-2_S3, internal
   42,   44,   98,  135, 1174, 1176, 1230, 1267
*Elset, elset=_Battery-rivet-2_S5, internal
   60,  170,  173, 1192, 1302, 1305
*Elset, elset=_Battery-rivet-2_S4, internal
  122,  165,  166,  167,  169,  172, 1254, 1297, 1298, 1299, 1301, 1304
*Surface, type=ELEMENT, name=Battery-rivet-2
_Battery-rivet-2_S6, S6
_Battery-rivet-2_S3, S3
_Battery-rivet-2_S4, S4
_Battery-rivet-2_S5, S5
*Elset, elset=_Battery-rivet-3_S6, internal
   21, 1153
*Elset, elset=_Battery-rivet-3_S3, internal
   30,   70,   76,  141,  179,  186, 1162, 1202, 1208, 1273, 1311, 1318
*Elset, elset=_Battery-rivet-3_S5, internal
   56,  191,  196, 1188, 1323, 1328
*Elset, elset=_Battery-rivet-3_S4, internal
  163,  175,  184,  185,  187,  188,  190,  195, 1295, 1307, 1316, 1317, 1319, 1320, 1322, 1327
*Surface, type=ELEMENT, name=Battery-rivet-3
_Battery-rivet-3_S6, S6
_Battery-rivet-3_S3, S3
_Battery-rivet-3_S4, S4
_Battery-rivet-3_S5, S5
*Orientation, name=Ori-1
1., 0., 0., 0., 1., 0.
3, 0.
** Section: BatOrtho
*Solid Section, elset=Batset, orientation=Ori-1, material=BatOrtho
,
*End Part
**  
*Part, name=CF
*Node
      1,         52.5,           0.,           0.
      2,         52.5,         110.,           0.
      3,           0.,         110.,           0.
      4,           0.,           0.,           0.
      5,         57.5,           0.,           0.
      6,         57.5,         110.,           0.
      7,         110.,           0.,           0.
      8,         110.,         110.,           0.
      9,         52.5,   2.97297287,           0.
     10,         52.5,   5.94594574,           0.
     11,         52.5,   8.91891861,           0.
     12,         52.5,   11.8918915,           0.
     13,         52.5,   14.8648653,           0.
     14,         52.5,   17.8378372,           0.
     15,         52.5,   20.8108101,           0.
     16,         52.5,    23.783783,           0.
     17,         52.5,   26.7567558,           0.
     18,         52.5,   29.7297306,           0.
     19,         52.5,   32.7027016,           0.
     20,         52.5,   35.6756744,           0.
** ... 1462 like lines cut
*Element, type=S4R
  1,   1,   9, 223, 114
  2,   9,  10, 224, 223
  3,  10,  11, 225, 224
  4,  11,  12, 226, 225
  5,  12,  13, 227, 226
  6,  13,  14, 228, 227
  7,  14,  15, 229, 228
  8,  15,  16, 230, 229
  9,  16,  17, 231, 230
 10,  17,  18, 232, 231
 11,  18,  19, 233, 232
 12,  19,  20, 234, 233
 13,  20,  21, 235, 234
 14,  21,  22, 236, 235
 15,  22,  23, 237, 236
 16,  23,  24, 238, 237
 17,  24,  25, 239, 238
 18,  25,  26, 240, 239
 19,  26,  27, 241, 240
 20,  27,  28, 242, 241
** ... 1386 like lines cut
*Nset, nset=CF_set, generate
    1,  1482,     1
*Elset, elset=CF_set, generate
    1,  1406,     1
*Elset, elset=_CFtop_SPOS, internal, generate
    1,  1406,     1
*Surface, type=ELEMENT, name=CFtop
_CFtop_SPOS, SPOS
*Elset, elset=_CFbot_SNEG, internal, generate
    1,  1406,     1
*Surface, type=ELEMENT, name=CFbot
_CFbot_SNEG, SNEG
** Section: CF_sec
*Shell Section, elset=CF_set, composite
0.2, 3, CF_material, 0.
0.2, 3, CF_material, 90.
0.2, 3, CF_material, 90.
0.2, 3, CF_material, 0.
*End Part
**  
*Part, name=Polymer
*Node
      1,   59.6126213,   68.5514221,           0.
      2,   59.6126213,   68.5514221,           5.
      3,   23.6540051,   42.0970459,           0.
      4,   23.6540051,   42.0970459,           5.
      5,          10.,         100.,           0.
      6,          10.,          10.,           0.
      7,         100.,          10.,           0.
      8,         100.,         100.,           0.
      9,         110.,           0.,           0.
     10,           0.,           0.,           0.
     11,           0.,         110.,           0.
     12,         110.,         110.,           0.
     13,          10.,          10.,           5.
     14,          10.,         100.,           5.
     15,         100.,         100.,           5.
     16,         100.,          10.,           5.
     17,           0.,         110.,           5.
     18,           0.,           0.,           5.
     19,         110.,           0.,           5.
     20,         110.,         110.,           5.
** ... 2317 like lines cut
*Element, type=C3D8R
 1,  697, 1893, 1877,  698,   36,  661,  645,   37
 2, 1894, 1892, 1896, 1893,  662,  660,  664,  661
 3,  693, 1890, 1891,  694,   32,  658,  659,   33
 4, 1879, 1878, 1890, 1889,  647,  646,  658,  657
 5, 1879, 1887, 1886, 1883,  647,  655,  654,  651
 6, 1895, 1883, 1886, 1880,  663,  651,  654,  648
 7,  685, 1885, 1881,  686,    1,  653,  649,   25
 8, 1885, 1883, 1895, 1881,  653,  651,  663,  649
 9, 1892, 1891, 1882, 1896,  660,  659,  650,  664
10, 1883, 1884, 1878, 1879,  651,  652,  646,  647
11,  698, 1877, 1885,  685,   37,  645,  653,    1
12,  692, 1889, 1890,  693,   31,  657,  658,   32
13, 1879, 1889, 1888, 1887,  647,  657,  656,  655
14, 1895, 1880,  688,  687,  663,  648,   27,   26
15, 1881, 1895,  687,  686,  649,  663,   26,   25
16, 1877, 1884, 1883, 1885,  645,  652,  651,  653
17,  689,  688, 1880, 1886,   28,   27,  648,  654
18, 1896, 1884, 1877, 1893,  664,  652,  645,  661
19,  694, 1891, 1892,  695,   33,  659,  660,   34
20,  690,  689, 1886, 1887,   29,   28,  654,  655
** ... 1212 like lines cut
*Nset, nset=PolySet
    5,    6,    7,    8,    9,   10,   11,   12,   13,   14,   15,   16,   17,   18,   19,   20
   69,   70,   71,   72,   73,   74,   75,   76,   77,   78,   79,   80,   81,   82,   83,   84
   85,   86,   87,   88,   89,   90,   91,   92,   93,   94,   95,   96,   97,   98,   99,  100
  101,  102,  103,  104,  105,  106,  107,  108,  109,  110,  111,  112,  113,  114,  115,  116
  117,  118,  119,  120,  121,  122,  123,  124,  125,  126,  127,  128,  129,  130,  131,  132
  133,  134,  135,  136,  137,  138,  139,  140,  141,  142,  143,  144,  145,  146,  147,  148
  149,  150,  151,  152,  153,  154,  155,  156,  157,  158,  159,  160,  161,  162,  163,  164
  165,  166,  167,  168,  169,  170,  171,  172,  173,  174,  175,  176,  177,  178,  179,  180
  181,  182,  183,  184,  185,  186,  187,  188,  189,  190,  191,  192,  193,  194,  195,  196
  197,  198,  199,  200,  201,  202,  203,  204,  205,  206,  207,  208,  209,  210,  211,  212
  213,  214,  215,  216,  217,  218,  219,  220,  221,  222,  223,  224,  225,  226,  227,  228
  229,  230,  231,  232,  233,  234,  235,  236,  237,  238,  239,  240,  241,  242,  243,  244
  245,  246,  247,  248,  249,  250,  251,  252,  253,  254,  255,  256,  257,  258,  259,  260
  261,  262,  263,  264,  265,  266,  267,  268,  269,  270,  271,  272,  273,  274,  275,  276
  277,  278,  279,  280,  281,  282,  283,  284,  285,  286,  287,  288,  289,  290,  291,  292
  293,  294,  295,  296,  297,  298,  299,  300,  301,  302,  303,  304,  305,  306,  307,  308
  309,  310,  311,  312,  313,  314,  315,  316,  317,  318,  319,  320,  321,  322,  323,  324
  325,  326,  327,  328,  329,  330,  331,  332,  333,  334,  335,  336,  337,  338,  339,  340
  341,  342,  343,  344,  345,  346,  347,  348,  349,  350,  351,  352,  353,  354,  355,  356
  357,  358,  359,  360,  361,  362,  363,  364,  365,  366,  367,  368,  369,  370,  371,  372
** ... 106 like lines cut
*Elset, elset=PolySet, generate
   69,  1140,     1
*Nset, nset=_PickedSet12, internal
    3,    4,   51,   52,   53,   54,   55,   56,   57,   58,   59,   60,   61,   62,   63,   64
   65,   66,   67,   68,  699,  700,  701,  702,  703,  704,  705,  706,  707,  708,  709,  710
  711,  712,  713,  714,  715,  716, 1897, 1898, 1899, 1900
*Elset, elset=_PickedSet12, internal, generate
 53,  68,   1
*Nset, nset=_PickedSet17, internal
   21,   22,  597,  598,  599,  600,  601,  602,  603,  604,  605,  606,  607,  608,  609,  610
 1781, 1782, 1783, 1784, 1785, 1786, 1787, 1788, 1789, 1790, 2303
*Elset, elset=_PickedSet17, internal, generate
 1141,  1148,     1
*Nset, nset=_PickedSet22, internal
    1,    2,   25,   26,   27,   28,   29,   30,   31,   32,   33,   34,   35,   36,   37,   38
   39,   40,   41,   42,   43,   44,   45,   46,   47,   48,   49,   50,  645,  646,  647,  648
  649,  650,  651,  652,  653,  654,  655,  656,  657,  658,  659,  660,  661,  662,  663,  664
  665,  666,  667,  668,  669,  670,  671,  672,  673,  674,  675,  676,  677,  678,  679,  680
  681,  682,  683,  684,  685,  686,  687,  688,  689,  690,  691,  692,  693,  694,  695,  696
  697,  698, 1877, 1878, 1879, 1880, 1881, 1882, 1883, 1884, 1885, 1886, 1887, 1888, 1889, 1890
 1891, 1892, 1893, 1894, 1895, 1896
*Elset, elset=_PickedSet22, internal, generate
  1,  52,   1
*Nset, nset=_PickedSet27, internal
   23,   24,  611,  612,  613,  614,  615,  616,  617,  618,  619,  620,  621,  622,  623,  624
  625,  626,  627,  628,  629,  630,  631,  632,  633,  634,  635,  636,  637,  638,  639,  640
  641,  642,  643,  644, 1791, 1792, 1793, 1794, 1795, 1796, 1797, 1798, 1799, 1800, 1801, 1802
 1803, 1804, 1805, 1806, 1807, 1808, 1809, 1810, 1811, 1812, 1813, 1814, 1815, 1816, 1817, 1818
 1819, 1820, 1821, 1822, 1823, 1824, 1825, 1826, 1827, 1828, 1829, 1830, 1831, 1832, 1833, 1834
 1835, 1836, 1837, 1838, 1839, 1840, 1841, 1842, 1843, 1844, 1845, 1846, 1847, 1848, 1849, 1850
 1851, 1852, 1853, 1854, 1855, 1856, 1857, 1858, 1859, 1860, 1861, 1862, 1863, 1864, 1865, 1866
 1867, 1868, 1869, 1870, 1871, 1872, 1873, 1874, 1875, 1876, 2304, 2305, 2306, 2307, 2308, 2309
 2310, 2311, 2312, 2313, 2314, 2315, 2316, 2317, 2318, 2319, 2320, 2321, 2322, 2323, 2324, 2325
 2326, 2327, 2328, 2329, 2330, 2331, 2332, 2333, 2334, 2335, 2336, 2337
*Elset, elset=_PickedSet27, internal, generate
 1149,  1232,     1
*Elset, elset=_PolyTop_S2, internal, generate
  605,  1140,     1
*Surface, type=ELEMENT, name=PolyTop
_PolyTop_S2, S2
*Elset, elset=_PolyBot_S1, internal, generate
  69,  604,    1
*Surface, type=ELEMENT, name=PolyBot
_PolyBot_S1, S1
*Elset, elset=_Polymer-rivet-0_S4, internal, generate
 53,  65,   4
*Elset, elset=_Polymer-rivet-0_S5, internal
 53, 55, 57, 61, 63, 65
*Elset, elset=_Polymer-rivet-0_S6, internal
 54, 56, 62, 64
*Elset, elset=_Polymer-rivet-0_S3, internal
 56, 59, 60, 64, 67, 68
*Surface, type=ELEMENT, name=Polymer-rivet-0
_Polymer-rivet-0_S4, S4
_Polymer-rivet-0_S5, S5
_Polymer-rivet-0_S6, S6
_Polymer-rivet-0_S3, S3
*Elset, elset=_Polymer-rivet-top-0_S1, internal, generate
 61,  68,   1
*Surface, type=ELEMENT, name=Polymer-rivet-top-0
_Polymer-rivet-top-0_S1, S1
*Elset, elset=_Polymer-rivet-bot-0_S2, internal, generate
 53,  60,   1
*Surface, type=ELEMENT, name=Polymer-rivet-bot-0
_Polymer-rivet-bot-0_S2, S2
*Elset, elset=_Polymer-rivet-1_S4, internal
 1141, 1144, 1145, 1148
*Elset, elset=_Polymer-rivet-1_S5, internal
 1141, 1144, 1145, 1148
*Elset, elset=_Polymer-rivet-1_S3, internal
 1142, 1143, 1146, 1147
*Elset, elset=_Polymer-rivet-1_S6, internal
 1142, 1143, 1146, 1147
*Surface, type=ELEMENT, name=Polymer-rivet-1
_Polymer-rivet-1_S4, S4
_Polymer-rivet-1_S5, S5
_Polymer-rivet-1_S6, S6
_Polymer-rivet-1_S3, S3
*Elset, elset=_Polymer-rivet-top-1_S1, internal, generate
 1145,  1148,     1
*Surface, type=ELEMENT, name=Polymer-rivet-top-1
_Polymer-rivet-top-1_S1, S1
*Elset, elset=_Polymer-rivet-bot-1_S2, internal, generate
 1141,  1144,     1
*Surface, type=ELEMENT, name=Polymer-rivet-bot-1
_Polymer-rivet-bot-1_S2, S2
*Elset, elset=_Polymer-rivet-2_S6, internal
  1,  3,  7, 11, 12, 19, 27, 29, 33, 37, 38, 45
*Elset, elset=_Polymer-rivet-2_S5, internal
 14, 15, 22, 40, 41, 48
*Elset, elset=_Polymer-rivet-2_S3, internal
 17, 20, 21, 43, 46, 47
*Elset, elset=_Polymer-rivet-2_S4, internal
 24, 25, 50, 51
*Surface, type=ELEMENT, name=Polymer-rivet-2
_Polymer-rivet-2_S6, S6
_Polymer-rivet-2_S5, S5
_Polymer-rivet-2_S4, S4
_Polymer-rivet-2_S3, S3
*Elset, elset=_Polymer-rivet-top-2_S1, internal, generate
 27,  52,   1
*Surface, type=ELEMENT, name=Polymer-rivet-top-2
_Polymer-rivet-top-2_S1, S1
*Elset, elset=_Polymer-rivet-bot-2_S2, internal, generate
  1,  26,   1
*Surface, type=ELEMENT, name=Polymer-rivet-bot-2
_Polymer-rivet-bot-2_S2, S2
*Elset, elset=_Polymer-rivet-3_S4, internal
 1149, 1150, 1163, 1165, 1175, 1188, 1189, 1191, 1192, 1205, 1207, 1217, 1230, 1231
*Elset, elset=_Polymer-rivet-3_S6, internal
 1152, 1168, 1194, 1210
*Elset, elset=_Polymer-rivet-3_S5, internal
 1154, 1158, 1169, 1170, 1185, 1196, 1200, 1211, 1212, 1227
*Elset, elset=_Polymer-rivet-3_S3, internal
 1157, 1166, 1176, 1184, 1199, 1208, 1218, 1226
*Surface, type=ELEMENT, name=Polymer-rivet-3
_Polymer-rivet-3_S4, S4
_Polymer-rivet-3_S6, S6
_Polymer-rivet-3_S5, S5
_Polymer-rivet-3_S3, S3
*Elset, elset=_Polymer-rivet-top-3_S1, internal, generate
 1191,  1232,     1
*Surface, type=ELEMENT, name=Polymer-rivet-top-3
_Polymer-rivet-top-3_S1, S1
*Elset, elset=_Polymer-rivet-bot-3_S2, internal, generate
 1149,  1190,     1
*Surface, type=ELEMENT, name=Polymer-rivet-bot-3
_Polymer-rivet-bot-3_S2, S2
** Section: PolySec
*Solid Section, elset=_PickedSet22, material=Polymer
,
** Section: PolySec
*Solid Section, elset=_PickedSet12, material=Polymer
,
** Section: PolySec
*Solid Section, elset=PolySet, material=Polymer
,
** Section: PolySec
*Solid Section, elset=_PickedSet17, material=Polymer
,
** Section: PolySec
*Solid Section, elset=_PickedSet27, material=Polymer
,
*End Part
**  
**
** ASSEMBLY
**
*Assembly, name=Assembly
**  
*Instance, name=Polymer-1, part=Polymer
*End Instance
**  
*Instance, name=Battery-1, part=Battery
         10.,          10.,           0.
*End Instance
**  
*Instance, name=CF-1, part=CF
          0.,           0.,         -0.4
*End Instance
**  
*Instance, name=CF-2, part=CF
          0.,           0.,          5.4
*End Instance
**  
*Node
      1,          55.,          55.,    5.4000001
*Nset, nset=VerticalSupport, instance=CF-1
   3,   4,   7,   8,  62,  63,  64,  65,  66,  67,  68,  69,  70,  71,  72,  73
  74,  75,  76,  77,  78,  79,  80,  81,  82,  83,  84,  85,  86,  87,  88,  89
  90,  91,  92,  93,  94,  95,  96,  97, 170, 171, 172, 173, 174, 175, 176, 177
 178, 179, 180, 181, 182, 183, 184, 185, 186, 187, 188, 189, 190, 191, 192, 193
 194, 195, 196, 197, 198, 199, 200, 201, 202, 203, 204, 205
*Elset, elset=VerticalSupport, instance=CF-1
  630,  631,  632,  633,  634,  635,  636,  637,  638,  639,  640,  641,  642,  643,  644,  645
  646,  647,  648,  649,  650,  651,  652,  653,  654,  655,  656,  657,  658,  659,  660,  661
  662,  663,  664,  665,  666, 1370, 1371, 1372, 1373, 1374, 1375, 1376, 1377, 1378, 1379, 1380
 1381, 1382, 1383, 1384, 1385, 1386, 1387, 1388, 1389, 1390, 1391, 1392, 1393, 1394, 1395, 1396
 1397, 1398, 1399, 1400, 1401, 1402, 1403, 1404, 1405, 1406
*Nset, nset=XDirSupport, instance=CF-1
 3,
*Nset, nset=YDirSupport, instance=CF-1
 7,
*Nset, nset=rigid_loading_set, instance=CF-2
   1,   2,   5,   6,   9,  10,  11,  12,  13,  14,  15,  16,  17,  18,  19,  20
  21,  22,  23,  24,  25,  26,  27,  28,  29,  30,  31,  32,  33,  34,  35,  36
  37,  38,  39,  40,  41,  42,  43,  44, 115, 116, 117, 118, 119, 120, 121, 122
 123, 124, 125, 126, 127, 128, 129, 130, 131, 132, 133, 134, 135, 136, 137, 138
 139, 140, 141, 142, 143, 144, 145, 146, 147, 148, 149, 150, 151, 152, 835, 836
 837, 838, 839, 840, 841, 842, 843, 844, 845, 846, 847, 848, 849, 850, 851, 852
 853, 854, 855, 856, 857, 858, 859, 860, 861, 862, 863, 864, 865, 866, 867, 868
 869, 870
*Elset, elset=rigid_loading_set, instance=CF-2, generate
 667,  740,    1
*Nset, nset=_PickedSet14, internal
 1,
*Elset, elset=__PickedSurf15_SPOS, internal, instance=CF-2, generate
 667,  740,    1
*Surface, type=ELEMENT, name=_PickedSurf15, internal
__PickedSurf15_SPOS, SPOS
** Constraint: BatPoly-0
*Tie, name=BatPoly-0, adjust=no, position tolerance=1.
Battery-1.Battery-rivet-0, Polymer-1.Polymer-rivet-0
** Constraint: BatPoly-1
*Tie, name=BatPoly-1, adjust=no, position tolerance=1.
Battery-1.Battery-rivet-1, Polymer-1.Polymer-rivet-1
** Constraint: BatPoly-2
*Tie, name=BatPoly-2, adjust=no, position tolerance=1.
Battery-1.Battery-rivet-2, Polymer-1.Polymer-rivet-2
** Constraint: BatPoly-3
*Tie, name=BatPoly-3, adjust=no, position tolerance=1.
Battery-1.Battery-rivet-3, Polymer-1.Polymer-rivet-3
** Constraint: CF1Poly
*Tie, name=CF1Poly, adjust=no, position tolerance=1.
Polymer-1.PolyBot, CF-1.CFtop
** Constraint: CF1Poly-Rivet-0
*Tie, name=CF1Poly-Rivet-0, adjust=no, position tolerance=1.
Polymer-1.Polymer-rivet-bot-0, CF-1.CFtop
** Constraint: CF1Poly-Rivet-1
*Tie, name=CF1Poly-Rivet-1, adjust=no, position tolerance=1.
Polymer-1.Polymer-rivet-bot-1, CF-1.CFtop
** Constraint: CF1Poly-Rivet-2
*Tie, name=CF1Poly-Rivet-2, adjust=no, position tolerance=1.
Polymer-1.Polymer-rivet-bot-2, CF-1.CFtop
** Constraint: CF1Poly-Rivet-3
*Tie, name=CF1Poly-Rivet-3, adjust=no, position tolerance=1.
Polymer-1.Polymer-rivet-bot-3, CF-1.CFtop
** Constraint: CF2Poly
*Tie, name=CF2Poly, adjust=no, position tolerance=1.
Polymer-1.PolyTop, CF-2.CFbot
** Constraint: CF2Poly-Rivet-0
*Tie, name=CF2Poly-Rivet-0, adjust=no, position tolerance=1.
Polymer-1.Polymer-rivet-top-0, CF-2.CFbot
** Constraint: CF2Poly-Rivet-1
*Tie, name=CF2Poly-Rivet-1, adjust=no, position tolerance=1.
Polymer-1.Polymer-rivet-top-1, CF-2.CFbot
** Constraint: CF2Poly-Rivet-2
*Tie, name=CF2Poly-Rivet-2, adjust=no, position tolerance=1.
Polymer-1.Polymer-rivet-top-2, CF-2.CFbot
** Constraint: CF2Poly-Rivet-3
*Tie, name=CF2Poly-Rivet-3, adjust=no, position tolerance=1.
Polymer-1.Polymer-rivet-top-3, CF-2.CFbot
** Constraint: LoadingRigidBody
*Rigid Body, ref node=_PickedSet14, tie nset=rigid_loading_set
*End Assembly
** 
** MATERIALS
** 
*Material, name=BatOrtho
*Elastic, type=ENGINEERING CONSTANTS
1090., 109., 500., 0.15, 0.15, 0.15, 474., 474.
 474.,
*Material, name=CF_material
*Elastic, type=ENGINEERING CONSTANTS
30420.,  4023.,  4023.,   0.29,   0.29, 0.3928,  2081.,  2081.
  1440.,
*Material, name=Polymer
*Elastic
500., 0.3
** 
** INTERACTION PROPERTIES
** 
*Surface Interaction, name=NormCont
1.,
*Friction, slip tolerance=0.005
 0.3,
*Surface Behavior, pressure-overclosure=HARD
** 
** INTERACTIONS
** 
** Interaction: CF1Bat
*Contact Pair, interaction=NormCont, type=SURFACE TO SURFACE
Battery-1.BatBot, CF-1.CFtop
** Interaction: CF2Bat
*Contact Pair, interaction=NormCont, type=SURFACE TO SURFACE
Battery-1.BatTop, CF-2.CFbot
** ----------------------------------------------------------------
** 
** STEP: Loading
** 
*Step, name=Loading, nlgeom=NO
*Static
1., 1., 1e-05, 1.
** 
** BOUNDARY CONDITIONS
** 
** Name: VerticalSupport Type: Displacement/Rotation
*Boundary
VerticalSupport, 3, 3
** Name: XDirSupport Type: Displacement/Rotation
*Boundary
XDirSupport, 1, 1
** Name: YDirSupport Type: Displacement/Rotation
*Boundary
YDirSupport, 2, 2
** 
** LOADS
** 
** Name: Load-1   Type: Pressure
*Dsload
_PickedSurf15, P, 0.181818
** 
** OUTPUT REQUESTS
** 
*Restart, write, frequency=0
** 
** FIELD OUTPUT: F-Output-1
** 
*Output, field
*Node Output
U, UR, UT
*Element Output, directions=YES
EVOL, 
** 
** HISTORY OUTPUT: H-Output-1
** 
*Output, history, variable=PRESELECT
*End Step
