*Heading
** Job name: Job-10 Model name: Model-1
** Generated by: Abaqus/CAE 2019
*Preprint, echo=NO, model=NO, history=NO, contact=NO
**
** PARTS
**
*Part, name=Battery
*Node
      1,   27.9523487,   67.8837662,           0.
      2,   24.6345387,   72.4503403,           0.
      3,   22.0885067,   73.7476044,           0.
      4,   16.4439125,   73.7476044,           0.
      5,   13.8978815,   72.4503403,           0.
      6,   10.5800724,   67.8837662,           0.
      7,   10.1330643,     65.06147,           0.
      8,   10.5800724,   62.2391701,           0.
      9,   13.8978815,   57.6725998,           0.
     10,   16.4439125,   56.3753319,           0.
     11,   22.0885067,   56.3753319,           0.
     12,   24.6345387,   57.6725998,           0.
     13,   27.9523487,   62.2391701,           0.
     14,   28.3993568,     65.06147,           0.
     15,   13.1982994,   50.3737907,           0.
     16,   11.1978779,   52.3742142,           0.
     17,   8.46525192,   53.1064186,           0.
     18,   5.73262596,   52.3742142,           0.
     19,   3.73220491,   50.3737907,           0.
     20,           3.,   47.6411667,           0.
** ... 3343 like lines cut
*Element, type=C3D8R
   1,  133,  257,  258,  134, 1254, 1378, 1379, 1255
   2,  322,  384,  271,  228, 1443, 1505, 1392, 1349
   3,  343,  323,  267,  268, 1464, 1444, 1388, 1389
   4,  323,  324,  264,  267, 1444, 1445, 1385, 1388
   5,  325,  266,  265,  327, 1446, 1387, 1386, 1448
   6,  325,  452,  453,  380, 1446, 1573, 1574, 1501
   7,  325,  380,  263,  266, 1446, 1501, 1384, 1387
   8,  224,  159,  158,  227, 1345, 1280, 1279, 1348
   9,   44,   61,   85,   84, 1165, 1182, 1206, 1205
  10,  210,  319,   43,   42, 1331, 1440, 1164, 1163
  11,  319,  210,   88,   87, 1440, 1331, 1209, 1208
  12,  239,  318,  337,  211, 1360, 1439, 1458, 1332
  13,  221,   95,   94,  216, 1342, 1216, 1215, 1337
  14,  220,   98,   97,  240, 1341, 1219, 1218, 1361
  15,   25,   24,  688,  183, 1146, 1145, 1809, 1304
  16,  684,  558,  309,  568, 1805, 1679, 1430, 1689
  17,   15,   26,  558,  563, 1136, 1147, 1679, 1684
  18,  406,  191,   57,  196, 1527, 1312, 1178, 1317
  19,  343,  438,  442,  323, 1464, 1559, 1563, 1444
  20, 1018,  402,  187, 1016, 2139, 1523, 1308, 2137
** ... 2050 like lines cut
*Nset, nset=Batset, generate
    1,  3363,     1
*Elset, elset=Batset, generate
    1,  2070,     1
*Elset, elset=_BatTop_S2, internal, generate
 1036,  2070,     1
*Surface, type=ELEMENT, name=BatTop
_BatTop_S2, S2
*Elset, elset=_BatBot_S1, internal, generate
    1,  1035,     1
*Surface, type=ELEMENT, name=BatBot
_BatBot_S1, S1
*Elset, elset=_Battery-rivet-0_S3, internal
    9,  209,  226,  228, 1044, 1244, 1261, 1263
*Elset, elset=_Battery-rivet-0_S5, internal
   10,   79,  180,  284,  285,  286,  290, 1045, 1114, 1215, 1319, 1320, 1321, 1325
*Elset, elset=_Battery-rivet-0_S6, internal
   55,   78,   80,  200, 1090, 1113, 1115, 1235
*Elset, elset=_Battery-rivet-0_S4, internal
  222,  283,  297, 1257, 1318, 1332
*Surface, type=ELEMENT, name=Battery-rivet-0
_Battery-rivet-0_S3, S3
_Battery-rivet-0_S5, S5
_Battery-rivet-0_S6, S6
_Battery-rivet-0_S4, S4
*Elset, elset=_Battery-rivet-1_S3, internal
   22, 1057
*Elset, elset=_Battery-rivet-1_S6, internal
   24,   47,  174, 1059, 1082, 1209
*Elset, elset=_Battery-rivet-1_S5, internal
   45,  175, 1080, 1210
*Elset, elset=_Battery-rivet-1_S4, internal
  103,  192, 1138, 1227
*Surface, type=ELEMENT, name=Battery-rivet-1
_Battery-rivet-1_S3, S3
_Battery-rivet-1_S6, S6
_Battery-rivet-1_S4, S4
_Battery-rivet-1_S5, S5
*Elset, elset=_Battery-rivet-2_S3, internal
   15,   17,   34,   43, 1050, 1052, 1069, 1078
*Elset, elset=_Battery-rivet-2_S5, internal
   31,  157, 1066, 1192
*Elset, elset=_Battery-rivet-2_S6, internal
   39,  153, 1074, 1188
*Elset, elset=_Battery-rivet-2_S4, internal
   52,   95,  155,  161, 1087, 1130, 1190, 1196
*Surface, type=ELEMENT, name=Battery-rivet-2
_Battery-rivet-2_S3, S3
_Battery-rivet-2_S5, S5
_Battery-rivet-2_S6, S6
_Battery-rivet-2_S4, S4
*Elset, elset=_Battery-rivet-3_S4, internal
   23,  117,  156,  166,  168,  171,  178,  181, 1058, 1152, 1191, 1201, 1203, 1206, 1213, 1216
*Elset, elset=_Battery-rivet-3_S6, internal
   27, 1062
*Elset, elset=_Battery-rivet-3_S3, internal
   29,   37,   59,   63,  109,  184, 1064, 1072, 1094, 1098, 1144, 1219
*Elset, elset=_Battery-rivet-3_S5, internal
   41,  164,  167,  170,  172, 1076, 1199, 1202, 1205, 1207
*Surface, type=ELEMENT, name=Battery-rivet-3
_Battery-rivet-3_S4, S4
_Battery-rivet-3_S6, S6
_Battery-rivet-3_S3, S3
_Battery-rivet-3_S5, S5
*Orientation, name=Ori-1
1., 0., 0., 0., 1., 0.
3, 0.
** Section: BatOrtho
*Solid Section, elset=Batset, orientation=Ori-1, material=BatOrtho
,
*End Part
**  
*Part, name=CF
*Node
      1,         52.5,           0.,           0.
      2,         52.5,         110.,           0.
      3,           0.,         110.,           0.
      4,           0.,           0.,           0.
      5,         57.5,           0.,           0.
      6,         57.5,         110.,           0.
      7,         110.,           0.,           0.
      8,         110.,         110.,           0.
      9,         52.5,   2.97297287,           0.
     10,         52.5,   5.94594574,           0.
     11,         52.5,   8.91891861,           0.
     12,         52.5,   11.8918915,           0.
     13,         52.5,   14.8648653,           0.
     14,         52.5,   17.8378372,           0.
     15,         52.5,   20.8108101,           0.
     16,         52.5,    23.783783,           0.
     17,         52.5,   26.7567558,           0.
     18,         52.5,   29.7297306,           0.
     19,         52.5,   32.7027016,           0.
     20,         52.5,   35.6756744,           0.
** ... 1462 like lines cut
*Element, type=S4R
  1,   1,   9, 223, 114
  2,   9,  10, 224, 223
  3,  10,  11, 225, 224
  4,  11,  12, 226, 225
  5,  12,  13, 227, 226
  6,  13,  14, 228, 227
  7,  14,  15, 229, 228
  8,  15,  16, 230, 229
  9,  16,  17, 231, 230
 10,  17,  18, 232, 231
 11,  18,  19, 233, 232
 12,  19,  20, 234, 233
 13,  20,  21, 235, 234
 14,  21,  22, 236, 235
 15,  22,  23, 237, 236
 16,  23,  24, 238, 237
 17,  24,  25, 239, 238
 18,  25,  26, 240, 239
 19,  26,  27, 241, 240
 20,  27,  28, 242, 241
** ... 1386 like lines cut
*Nset, nset=CF_set, generate
    1,  1482,     1
*Elset, elset=CF_set, generate
    1,  1406,     1
*Elset, elset=_CFtop_SPOS, internal, generate
    1,  1406,     1
*Surface, type=ELEMENT, name=CFtop
_CFtop_SPOS, SPOS
*Elset, elset=_CFbot_SNEG, internal, generate
    1,  1406,     1
*Surface, type=ELEMENT, name=CFbot
_CFbot_SNEG, SNEG
** Section: CF_sec
*Shell Section, elset=CF_set, composite
0.2, 3, CF_material, 0.
0.2, 3, CF_material, 90.
0.2, 3, CF_material, 90.
0.2, 3, CF_material, 0.
*End Part
**  
*Part, name=Polymer
*Node
      1,   23.9305038,   57.6411667,           0.
      2,   23.9305038,   57.6411667,           5.
      3,   41.2761688,   21.6455708,           0.
      4,   41.2761688,   21.6455708,           5.
      5,          10.,         100.,           0.
      6,          10.,          10.,           0.
      7,         100.,          10.,           0.
      8,         100.,         100.,           0.
      9,         110.,           0.,           0.
     10,           0.,           0.,           0.
     11,           0.,         110.,           0.
     12,         110.,         110.,           0.
     13,          10.,          10.,           5.
     14,          10.,         100.,           5.
     15,         100.,         100.,           5.
     16,         100.,          10.,           5.
     17,           0.,         110.,           5.
     18,           0.,           0.,           5.
     19,         110.,           0.,           5.
     20,         110.,         110.,           5.
** ... 2416 like lines cut
*Element, type=C3D8R
 1, 1959,  696,  695, 1953,  669,   33,   32,  663
 2,  696, 1959, 1952,  697,   33,  669,  662,   34
 3,  698, 1958, 1951,  687,   35,  668,  661,    1
 4, 1955, 1962, 1957, 1961,  665,  672,  667,  671
 5, 1951, 1958, 1957, 1956,  661,  668,  667,  666
 6, 1956, 1957, 1962, 1963,  666,  667,  672,  673
 7, 1951, 1956,  688,  687,  661,  666,   25,    1
 8,  694,  693, 1954, 1960,   31,   30,  664,  670
 9, 1960, 1953,  695,  694,  670,  663,   32,   31
10,  692, 1961, 1954,  693,   29,  671,  664,   30
11,  691,  690, 1962, 1955,   28,   27,  672,  665
12, 1962,  690,  689, 1963,  672,   27,   26,  673
13, 1958, 1953, 1961, 1957,  668,  663,  671,  667
14, 1952, 1958,  698,  697,  662,  668,   35,   34
15, 1961,  692,  691, 1955,  671,   29,   28,  665
16, 1963,  689,  688, 1956,  673,   26,   25,  666
17, 1954, 1961, 1953, 1960,  664,  671,  663,  670
18, 1952, 1959, 1953, 1958,  662,  669,  663,  668
19,  682,   38,   39,  676, 1959,  696,  695, 1953
20,   38,  682,  675,   37,  696, 1959, 1952,  697
** ... 1270 like lines cut
*Nset, nset=PolySet
    5,    6,    7,    8,    9,   10,   11,   12,   13,   14,   15,   16,   17,   18,   19,   20
   81,   82,   83,   84,   85,   86,   87,   88,   89,   90,   91,   92,   93,   94,   95,   96
   97,   98,   99,  100,  101,  102,  103,  104,  105,  106,  107,  108,  109,  110,  111,  112
  113,  114,  115,  116,  117,  118,  119,  120,  121,  122,  123,  124,  125,  126,  127,  128
  129,  130,  131,  132,  133,  134,  135,  136,  137,  138,  139,  140,  141,  142,  143,  144
  145,  146,  147,  148,  149,  150,  151,  152,  153,  154,  155,  156,  157,  158,  159,  160
  161,  162,  163,  164,  165,  166,  167,  168,  169,  170,  171,  172,  173,  174,  175,  176
  177,  178,  179,  180,  181,  182,  183,  184,  185,  186,  187,  188,  189,  190,  191,  192
  193,  194,  195,  196,  197,  198,  199,  200,  201,  202,  203,  204,  205,  206,  207,  208
  209,  210,  211,  212,  213,  214,  215,  216,  217,  218,  219,  220,  221,  222,  223,  224
  225,  226,  227,  228,  229,  230,  231,  232,  233,  234,  235,  236,  237,  238,  239,  240
  241,  242,  243,  244,  245,  246,  247,  248,  249,  250,  251,  252,  253,  254,  255,  256
  257,  258,  259,  260,  261,  262,  263,  264,  265,  266,  267,  268,  269,  270,  271,  272
  273,  274,  275,  276,  277,  278,  279,  280,  281,  282,  283,  284,  285,  286,  287,  288
  289,  290,  291,  292,  293,  294,  295,  296,  297,  298,  299,  300,  301,  302,  303,  304
  305,  306,  307,  308,  309,  310,  311,  312,  313,  314,  315,  316,  317,  318,  319,  320
  321,  322,  323,  324,  325,  326,  327,  328,  329,  330,  331,  332,  333,  334,  335,  336
  337,  338,  339,  340,  341,  342,  343,  344,  345,  346,  347,  348,  349,  350,  351,  352
  353,  354,  355,  356,  357,  358,  359,  360,  361,  362,  363,  364,  365,  366,  367,  368
  369,  370,  371,  372,  373,  374,  375,  376,  377,  378,  379,  380,  381,  382,  383,  384
** ... 106 like lines cut
*Elset, elset=PolySet, generate
  121,  1192,     1
*Nset, nset=_PickedSet12, internal
    3,    4,   47,   48,   49,   50,   51,   52,   53,   54,   55,   56,   57,   58,   59,   60
   61,   62,   63,   64,   65,   66,   67,   68,   69,   70,   71,   72,   73,   74,   75,   76
   77,   78,   79,   80,  699,  700,  701,  702,  703,  704,  705,  706,  707,  708,  709,  710
  711,  712,  713,  714,  715,  716,  717,  718,  719,  720,  721,  722,  723,  724,  725,  726
  727,  728,  729,  730,  731,  732,  733,  734,  735,  736,  737,  738,  739,  740,  741,  742
  743,  744,  745,  746,  747,  748,  749,  750,  751,  752,  753,  754,  755,  756,  757,  758
  759,  760,  761,  762,  763,  764,  765,  766,  767,  768,  769,  770,  771,  772,  773,  774
  775,  776,  777,  778,  779,  780,  781,  782,  783,  784, 1964, 1965, 1966, 1967, 1968, 1969
 1970, 1971, 1972, 1973, 1974, 1975, 1976, 1977, 1978, 1979, 1980, 1981, 1982, 1983, 1984, 1985
 1986, 1987, 1988, 1989, 1990, 1991, 1992, 1993, 1994, 1995, 1996, 1997
*Elset, elset=_PickedSet12, internal, generate
  37,  120,    1
*Nset, nset=_PickedSet17, internal
   21,   22,  609,  610,  611,  612,  613,  614,  615,  616,  617,  618,  619,  620,  621,  622
 1849, 1850, 1851, 1852, 1853, 1854, 1855, 1856, 1857, 1858, 2400
*Elset, elset=_PickedSet17, internal, generate
 1193,  1200,     1
*Nset, nset=_PickedSet22, internal
    1,    2,   25,   26,   27,   28,   29,   30,   31,   32,   33,   34,   35,   36,   37,   38
   39,   40,   41,   42,   43,   44,   45,   46,  661,  662,  663,  664,  665,  666,  667,  668
  669,  670,  671,  672,  673,  674,  675,  676,  677,  678,  679,  680,  681,  682,  683,  684
  685,  686,  687,  688,  689,  690,  691,  692,  693,  694,  695,  696,  697,  698, 1951, 1952
 1953, 1954, 1955, 1956, 1957, 1958, 1959, 1960, 1961, 1962, 1963
*Elset, elset=_PickedSet22, internal, generate
  1,  36,   1
*Nset, nset=_PickedSet27, internal
   23,   24,  623,  624,  625,  626,  627,  628,  629,  630,  631,  632,  633,  634,  635,  636
  637,  638,  639,  640,  641,  642,  643,  644,  645,  646,  647,  648,  649,  650,  651,  652
  653,  654,  655,  656,  657,  658,  659,  660, 1859, 1860, 1861, 1862, 1863, 1864, 1865, 1866
 1867, 1868, 1869, 1870, 1871, 1872, 1873, 1874, 1875, 1876, 1877, 1878, 1879, 1880, 1881, 1882
 1883, 1884, 1885, 1886, 1887, 1888, 1889, 1890, 1891, 1892, 1893, 1894, 1895, 1896, 1897, 1898
 1899, 1900, 1901, 1902, 1903, 1904, 1905, 1906, 1907, 1908, 1909, 1910, 1911, 1912, 1913, 1914
 1915, 1916, 1917, 1918, 1919, 1920, 1921, 1922, 1923, 1924, 1925, 1926, 1927, 1928, 1929, 1930
 1931, 1932, 1933, 1934, 1935, 1936, 1937, 1938, 1939, 1940, 1941, 1942, 1943, 1944, 1945, 1946
 1947, 1948, 1949, 1950, 2401, 2402, 2403, 2404, 2405, 2406, 2407, 2408, 2409, 2410, 2411, 2412
 2413, 2414, 2415, 2416, 2417, 2418, 2419, 2420, 2421, 2422, 2423, 2424, 2425, 2426, 2427, 2428
 2429, 2430, 2431, 2432, 2433, 2434, 2435, 2436
*Elset, elset=_PickedSet27, internal, generate
 1201,  1290,     1
*Elset, elset=_PolyTop_S2, internal, generate
  657,  1192,     1
*Surface, type=ELEMENT, name=PolyTop
_PolyTop_S2, S2
*Elset, elset=_PolyBot_S1, internal, generate
 121,  656,    1
*Surface, type=ELEMENT, name=PolyBot
_PolyBot_S1, S1
*Elset, elset=_Polymer-rivet-0_S6, internal
  38,  44,  47,  49,  64,  77,  80,  86,  89,  91, 106, 119
*Elset, elset=_Polymer-rivet-0_S4, internal
  39,  53,  71,  81,  95, 113
*Elset, elset=_Polymer-rivet-0_S5, internal
  41,  52,  57,  76,  83,  94,  99, 118
*Elset, elset=_Polymer-rivet-0_S3, internal
  43,  65,  72,  74,  75,  85, 107, 114, 116, 117
*Surface, type=ELEMENT, name=Polymer-rivet-0
_Polymer-rivet-0_S6, S6
_Polymer-rivet-0_S4, S4
_Polymer-rivet-0_S5, S5
_Polymer-rivet-0_S3, S3
*Elset, elset=_Polymer-rivet-top-0_S1, internal, generate
  79,  120,    1
*Surface, type=ELEMENT, name=Polymer-rivet-top-0
_Polymer-rivet-top-0_S1, S1
*Elset, elset=_Polymer-rivet-bot-0_S2, internal, generate
 37,  78,   1
*Surface, type=ELEMENT, name=Polymer-rivet-bot-0
_Polymer-rivet-bot-0_S2, S2
*Elset, elset=_Polymer-rivet-1_S3, internal
 1193, 1194, 1195, 1197, 1198, 1199
*Elset, elset=_Polymer-rivet-1_S6, internal
 1193, 1194, 1195, 1197, 1198, 1199
*Elset, elset=_Polymer-rivet-1_S4, internal
 1196, 1200
*Elset, elset=_Polymer-rivet-1_S5, internal
 1196, 1200
*Surface, type=ELEMENT, name=Polymer-rivet-1
_Polymer-rivet-1_S3, S3
_Polymer-rivet-1_S6, S6
_Polymer-rivet-1_S4, S4
_Polymer-rivet-1_S5, S5
*Elset, elset=_Polymer-rivet-top-1_S1, internal, generate
 1197,  1200,     1
*Surface, type=ELEMENT, name=Polymer-rivet-top-1
_Polymer-rivet-top-1_S1, S1
*Elset, elset=_Polymer-rivet-bot-1_S2, internal, generate
 1193,  1196,     1
*Surface, type=ELEMENT, name=Polymer-rivet-bot-1
_Polymer-rivet-bot-1_S2, S2
*Elset, elset=_Polymer-rivet-2_S4, internal
  1, 12, 15, 16, 19, 30, 33, 34
*Elset, elset=_Polymer-rivet-2_S6, internal
  2,  3, 10, 20, 21, 28
*Elset, elset=_Polymer-rivet-2_S5, internal
  7,  9, 14, 25, 27, 32
*Elset, elset=_Polymer-rivet-2_S3, internal
  8, 11, 26, 29
*Surface, type=ELEMENT, name=Polymer-rivet-2
_Polymer-rivet-2_S4, S4
_Polymer-rivet-2_S6, S6
_Polymer-rivet-2_S5, S5
_Polymer-rivet-2_S3, S3
*Elset, elset=_Polymer-rivet-top-2_S1, internal, generate
 19,  36,   1
*Surface, type=ELEMENT, name=Polymer-rivet-top-2
_Polymer-rivet-top-2_S1, S1
*Elset, elset=_Polymer-rivet-bot-2_S2, internal, generate
  1,  18,   1
*Surface, type=ELEMENT, name=Polymer-rivet-bot-2
_Polymer-rivet-bot-2_S2, S2
*Elset, elset=_Polymer-rivet-3_S4, internal
 1201, 1214, 1219, 1220, 1226, 1240, 1246, 1259, 1264, 1265, 1271, 1285
*Elset, elset=_Polymer-rivet-3_S6, internal
 1202, 1207, 1209, 1217, 1224, 1225, 1243, 1247, 1252, 1254, 1262, 1269, 1270, 1288
*Elset, elset=_Polymer-rivet-3_S3, internal
 1215, 1218, 1241, 1242, 1260, 1263, 1286, 1287
*Elset, elset=_Polymer-rivet-3_S5, internal
 1222, 1223, 1228, 1267, 1268, 1273
*Surface, type=ELEMENT, name=Polymer-rivet-3
_Polymer-rivet-3_S4, S4
_Polymer-rivet-3_S6, S6
_Polymer-rivet-3_S3, S3
_Polymer-rivet-3_S5, S5
*Elset, elset=_Polymer-rivet-top-3_S1, internal, generate
 1246,  1290,     1
*Surface, type=ELEMENT, name=Polymer-rivet-top-3
_Polymer-rivet-top-3_S1, S1
*Elset, elset=_Polymer-rivet-bot-3_S2, internal, generate
 1201,  1245,     1
*Surface, type=ELEMENT, name=Polymer-rivet-bot-3
_Polymer-rivet-bot-3_S2, S2
** Section: PolySec
*Solid Section, elset=_PickedSet22, material=Polymer
,
** Section: PolySec
*Solid Section, elset=_PickedSet12, material=Polymer
,
** Section: PolySec
*Solid Section, elset=PolySet, material=Polymer
,
** Section: PolySec
*Solid Section, elset=_PickedSet17, material=Polymer
,
** Section: PolySec
*Solid Section, elset=_PickedSet27, material=Polymer
,
*End Part
**  
**
** ASSEMBLY
**
*Assembly, name=Assembly
**  
*Instance, name=Polymer-1, part=Polymer
*End Instance
**  
*Instance, name=Battery-1, part=Battery
         10.,          10.,           0.
*End Instance
**  
*Instance, name=CF-1, part=CF
          0.,           0.,         -0.4
*End Instance
**  
*Instance, name=CF-2, part=CF
          0.,           0.,          5.4
*End Instance
**  
*Node
      1,          55.,          55.,    5.4000001
*Nset, nset=VerticalSupport, instance=CF-1
   3,   4,   7,   8,  62,  63,  64,  65,  66,  67,  68,  69,  70,  71,  72,  73
  74,  75,  76,  77,  78,  79,  80,  81,  82,  83,  84,  85,  86,  87,  88,  89
  90,  91,  92,  93,  94,  95,  96,  97, 170, 171, 172, 173, 174, 175, 176, 177
 178, 179, 180, 181, 182, 183, 184, 185, 186, 187, 188, 189, 190, 191, 192, 193
 194, 195, 196, 197, 198, 199, 200, 201, 202, 203, 204, 205
*Elset, elset=VerticalSupport, instance=CF-1
  630,  631,  632,  633,  634,  635,  636,  637,  638,  639,  640,  641,  642,  643,  644,  645
  646,  647,  648,  649,  650,  651,  652,  653,  654,  655,  656,  657,  658,  659,  660,  661
  662,  663,  664,  665,  666, 1370, 1371, 1372, 1373, 1374, 1375, 1376, 1377, 1378, 1379, 1380
 1381, 1382, 1383, 1384, 1385, 1386, 1387, 1388, 1389, 1390, 1391, 1392, 1393, 1394, 1395, 1396
 1397, 1398, 1399, 1400, 1401, 1402, 1403, 1404, 1405, 1406
*Nset, nset=XDirSupport, instance=CF-1
 3,
*Nset, nset=YDirSupport, instance=CF-1
 7,
*Nset, nset=rigid_loading_set, instance=CF-2
   1,   2,   5,   6,   9,  10,  11,  12,  13,  14,  15,  16,  17,  18,  19,  20
  21,  22,  23,  24,  25,  26,  27,  28,  29,  30,  31,  32,  33,  34,  35,  36
  37,  38,  39,  40,  41,  42,  43,  44, 115, 116, 117, 118, 119, 120, 121, 122
 123, 124, 125, 126, 127, 128, 129, 130, 131, 132, 133, 134, 135, 136, 137, 138
 139, 140, 141, 142, 143, 144, 145, 146, 147, 148, 149, 150, 151, 152, 835, 836
 837, 838, 839, 840, 841, 842, 843, 844, 845, 846, 847, 848, 849, 850, 851, 852
 853, 854, 855, 856, 857, 858, 859, 860, 861, 862, 863, 864, 865, 866, 867, 868
 869, 870
*Elset, elset=rigid_loading_set, instance=CF-2, generate
 667,  740,    1
*Nset, nset=_PickedSet14, internal
 1,
*Elset, elset=__PickedSurf15_SPOS, internal, instance=CF-2, generate
 667,  740,    1
*Surface, type=ELEMENT, name=_PickedSurf15, internal
__PickedSurf15_SPOS, SPOS
** Constraint: BatPoly-0
*Tie, name=BatPoly-0, adjust=no, position tolerance=1.
Battery-1.Battery-rivet-0, Polymer-1.Polymer-rivet-0
** Constraint: BatPoly-1
*Tie, name=BatPoly-1, adjust=no, position tolerance=1.
Battery-1.Battery-rivet-1, Polymer-1.Polymer-rivet-1
** Constraint: BatPoly-2
*Tie, name=BatPoly-2, adjust=no, position tolerance=1.
Battery-1.Battery-rivet-2, Polymer-1.Polymer-rivet-2
** Constraint: BatPoly-3
*Tie, name=BatPoly-3, adjust=no, position tolerance=1.
Battery-1.Battery-rivet-3, Polymer-1.Polymer-rivet-3
** Constraint: CF1Poly
*Tie, name=CF1Poly, adjust=no, position tolerance=1.
Polymer-1.PolyBot, CF-1.CFtop
** Constraint: CF1Poly-Rivet-0
*Tie, name=CF1Poly-Rivet-0, adjust=no, position tolerance=1.
Polymer-1.Polymer-rivet-bot-0, CF-1.CFtop
** Constraint: CF1Poly-Rivet-1
*Tie, name=CF1Poly-Rivet-1, adjust=no, position tolerance=1.
Polymer-1.Polymer-rivet-bot-1, CF-1.CFtop
** Constraint: CF1Poly-Rivet-2
*Tie, name=CF1Poly-Rivet-2, adjust=no, position tolerance=1.
Polymer-1.Polymer-rivet-bot-2, CF-1.CFtop
** Constraint: CF1Poly-Rivet-3
*Tie, name=CF1Poly-Rivet-3, adjust=no, position tolerance=1.
Polymer-1.Polymer-rivet-bot-3, CF-1.CFtop
** Constraint: CF2Poly
*Tie, name=CF2Poly, adjust=no, position tolerance=1.
Polymer-1.PolyTop, CF-2.CFbot
** Constraint: CF2Poly-Rivet-0
*Tie, name=CF2Poly-Rivet-0, adjust=no, position tolerance=1.
Polymer-1.Polymer-rivet-top-0, CF-2.CFbot
** Constraint: CF2Poly-Rivet-1
*Tie, name=CF2Poly-Rivet-1, adjust=no, position tolerance=1.
Polymer-1.Polymer-rivet-top-1, CF-2.CFbot
** Constraint: CF2Poly-Rivet-2
*Tie, name=CF2Poly-Rivet-2, adjust=no, position tolerance=1.
Polymer-1.Polymer-rivet-top-2, CF-2.CFbot
** Constraint: CF2Poly-Rivet-3
*Tie, name=CF2Poly-Rivet-3, adjust=no, position tolerance=1.
Polymer-1.Polymer-rivet-top-3, CF-2.CFbot
** Constraint: LoadingRigidBody
*Rigid Body, ref node=_PickedSet14, tie nset=rigid_loading_set
*End Assembly
** 
** MATERIALS
** 
*Material, name=BatOrtho
*Elastic, type=ENGINEERING CONSTANTS
1090., 109., 500., 0.15, 0.15, 0.15, 474., 474.
 474.,
*Material, name=CF_material
*Elastic, type=ENGINEERING CONSTANTS
30420.,  4023.,  4023.,   0.29,   0.29, 0.3928,  2081.,  2081.
  1440.,
*Material, name=Polymer
*Elastic
500., 0.3
** 
** INTERACTION PROPERTIES
** 
*Surface Interaction, name=NormCont
1.,
*Friction, slip tolerance=0.005
 0.3,
*Surface Behavior, pressure-overclosure=HARD
** 
** INTERACTIONS
** 
** Interaction: CF1Bat
*Contact Pair, interaction=NormCont, type=SURFACE TO SURFACE
Battery-1.BatBot, CF-1.CFtop
** Interaction: CF2Bat
*Contact Pair, interaction=NormCont, type=SURFACE TO SURFACE
Battery-1.BatTop, CF-2.CFbot
** ----------------------------------------------------------------
** 
** STEP: Loading
** 
*Step, name=Loading, nlgeom=NO
*Static
1., 1., 1e-05, 1.
** 
** BOUNDARY CONDITIONS
** 
** Name: VerticalSupport Type: Displacement/Rotation
*Boundary
VerticalSupport, 3, 3
** Name: XDirSupport Type: Displacement/Rotation
*Boundary
XDirSupport, 1, 1
** Name: YDirSupport Type: Displacement/Rotation
*Boundary
YDirSupport, 2, 2
** 
** LOADS
** 
** Name: Load-1   Type: Pressure
*Dsload
_PickedSurf15, P, 0.181818
** 
** OUTPUT REQUESTS
** 
*Restart, write, frequency=0
** 
** FIELD OUTPUT: F-Output-1
** 
*Output, field
*Node Output
U, UR, UT
*Element Output, directions=YES
EVOL, 
** 
** HISTORY OUTPUT: H-Output-1
** 
*Output, history, variable=PRESELECT
*End Step
