*Heading
** Job name: Job-4 Model name: Model-1
** Generated by: Abaqus/CAE 2019
*Preprint, echo=NO, model=NO, history=NO, contact=NO
**
** PARTS
**
*Part, name=Battery
*Node
      1,    12.535985,   9.02676773,           0.
      2,   10.0396166,   10.0607967,           0.
      3,    7.5432477,   9.02676773,           0.
      4,   6.50921774,   6.53039837,           0.
      5,    7.5432477,   4.03402996,           0.
      6,   10.0396166,           3.,           0.
      7,    12.535985,   4.03402996,           0.
      8,    13.570015,   6.53039837,           0.
      9,   85.4125748,    26.109314,           0.
     10,   83.5486908,   28.2603512,           0.
     11,   78.4233475,   30.6010151,           0.
     12,   75.5771179,   30.6010151,           0.
     13,   70.4517822,   28.2603512,           0.
     14,   68.5878983,    26.109314,           0.
     15,   67.0004654,   20.7030334,           0.
     16,   68.5878983,    15.296751,           0.
     17,   70.4517822,   13.1457138,           0.
     18,   75.5771179,   10.8050499,           0.
     19,   78.4233475,   10.8050499,           0.
     20,   83.5486908,   13.1457138,           0.
** ... 3751 like lines cut
*Element, type=C3D8R
   1,    3,    2,  287,  288, 1260, 1259, 1544, 1545
   2,  335,  226,  225,  311, 1592, 1483, 1482, 1568
   3,  195,   46,   14,  192, 1452, 1303, 1271, 1449
   4,  393,  300,   88,   87, 1650, 1557, 1345, 1344
   5,  300,  395,  442,  309, 1557, 1652, 1699, 1566
   6, 1138,  183,    3,  288, 2395, 1440, 1260, 1545
   7,  183, 1138,  381, 1144, 1440, 2395, 1638, 2401
   8,  223,  224,   83,   82, 1480, 1481, 1340, 1339
   9,    4,  223,  201, 1143, 1261, 1480, 1458, 2400
  10,  278,    5,    4, 1143, 1535, 1262, 1261, 2400
  11, 1131,   79,   78, 1130, 2388, 1336, 1335, 2387
  12,  276,   77,   76,    6, 1533, 1334, 1333, 1263
  13,   54,   53,  202,  207, 1311, 1310, 1459, 1464
  14,   52,  203,  202,   53, 1309, 1460, 1459, 1310
  15,  193, 1149,  185,   19, 1450, 2406, 1442, 1276
  16,  187,   17,  189, 1126, 1444, 1274, 1446, 2383
  17, 1139,  178,   23,   30, 2396, 1435, 1280, 1287
  18, 1164,  285, 1126,  189, 2421, 1542, 2383, 1446
  19,  763,   24,   23,  176, 2020, 1281, 1280, 1433
  20,   25,   24,  763,  177, 1282, 1281, 2020, 1434
** ... 2334 like lines cut
*Nset, nset=Batset, generate
    1,  3771,     1
*Elset, elset=Batset, generate
    1,  2354,     1
*Elset, elset=_BatTop_S2, internal, generate
 1178,  2354,     1
*Surface, type=ELEMENT, name=BatTop
_BatTop_S2, S2
*Elset, elset=_BatBot_S1, internal, generate
    1,  1177,     1
*Surface, type=ELEMENT, name=BatBot
_BatBot_S1, S1
*Elset, elset=_Battery-rivet-0_S3, internal
   38,  128, 1215, 1305
*Elset, elset=_Battery-rivet-0_S4, internal
   40,   49,  143,  149,  150, 1217, 1226, 1320, 1326, 1327
*Elset, elset=_Battery-rivet-0_S5, internal
  131, 1308
*Surface, type=ELEMENT, name=Battery-rivet-0
_Battery-rivet-0_S3, S3
_Battery-rivet-0_S4, S4
_Battery-rivet-0_S5, S5
*Elset, elset=_Battery-rivet-1_S5, internal
   17,   26, 1194, 1203
*Elset, elset=_Battery-rivet-1_S4, internal
   19,  146, 1196, 1323
*Elset, elset=_Battery-rivet-1_S3, internal
   20,   21,  154, 1197, 1198, 1331
*Elset, elset=_Battery-rivet-1_S6, internal
   61, 1238
*Surface, type=ELEMENT, name=Battery-rivet-1
_Battery-rivet-1_S5, S5
_Battery-rivet-1_S4, S4
_Battery-rivet-1_S6, S6
_Battery-rivet-1_S3, S3
*Elset, elset=_Battery-rivet-2_S4, internal
    3,   46,  145,  148,  168,  171,  173,  182, 1180, 1223, 1322, 1325, 1345, 1348, 1350, 1359
*Elset, elset=_Battery-rivet-2_S6, internal
   37,   56,  134,  136,  139, 1214, 1233, 1311, 1313, 1316
*Elset, elset=_Battery-rivet-2_S5, internal
   38,   65,  169,  170,  172,  178, 1215, 1242, 1346, 1347, 1349, 1355
*Elset, elset=_Battery-rivet-2_S3, internal
   39,   53,   55, 1216, 1230, 1232
*Surface, type=ELEMENT, name=Battery-rivet-2
_Battery-rivet-2_S4, S4
_Battery-rivet-2_S6, S6
_Battery-rivet-2_S5, S5
_Battery-rivet-2_S3, S3
*Elset, elset=_Battery-rivet-3_S3, internal
    1,  163, 1178, 1340
*Elset, elset=_Battery-rivet-3_S4, internal
   10,   76,  161,  164, 1187, 1253, 1338, 1341
*Elset, elset=_Battery-rivet-3_S6, internal
   74,   80, 1251, 1257
*Surface, type=ELEMENT, name=Battery-rivet-3
_Battery-rivet-3_S3, S3
_Battery-rivet-3_S4, S4
_Battery-rivet-3_S6, S6
*Orientation, name=Ori-1
1., 0., 0., 0., 1., 0.
3, 0.
** Section: BatOrtho
*Solid Section, elset=Batset, orientation=Ori-1, material=BatOrtho
,
*End Part
**  
*Part, name=CF
*Node
      1,         52.5,           0.,           0.
      2,         52.5,         110.,           0.
      3,           0.,         110.,           0.
      4,           0.,           0.,           0.
      5,         57.5,           0.,           0.
      6,         57.5,         110.,           0.
      7,         110.,           0.,           0.
      8,         110.,         110.,           0.
      9,         52.5,   2.97297287,           0.
     10,         52.5,   5.94594574,           0.
     11,         52.5,   8.91891861,           0.
     12,         52.5,   11.8918915,           0.
     13,         52.5,   14.8648653,           0.
     14,         52.5,   17.8378372,           0.
     15,         52.5,   20.8108101,           0.
     16,         52.5,    23.783783,           0.
     17,         52.5,   26.7567558,           0.
     18,         52.5,   29.7297306,           0.
     19,         52.5,   32.7027016,           0.
     20,         52.5,   35.6756744,           0.
** ... 1462 like lines cut
*Element, type=S4R
  1,   1,   9, 223, 114
  2,   9,  10, 224, 223
  3,  10,  11, 225, 224
  4,  11,  12, 226, 225
  5,  12,  13, 227, 226
  6,  13,  14, 228, 227
  7,  14,  15, 229, 228
  8,  15,  16, 230, 229
  9,  16,  17, 231, 230
 10,  17,  18, 232, 231
 11,  18,  19, 233, 232
 12,  19,  20, 234, 233
 13,  20,  21, 235, 234
 14,  21,  22, 236, 235
 15,  22,  23, 237, 236
 16,  23,  24, 238, 237
 17,  24,  25, 239, 238
 18,  25,  26, 240, 239
 19,  26,  27, 241, 240
 20,  27,  28, 242, 241
** ... 1386 like lines cut
*Nset, nset=CF_set, generate
    1,  1482,     1
*Elset, elset=CF_set, generate
    1,  1406,     1
*Elset, elset=_CFtop_SPOS, internal, generate
    1,  1406,     1
*Surface, type=ELEMENT, name=CFtop
_CFtop_SPOS, SPOS
*Elset, elset=_CFbot_SNEG, internal, generate
    1,  1406,     1
*Surface, type=ELEMENT, name=CFbot
_CFbot_SNEG, SNEG
** Section: CF_sec
*Shell Section, elset=CF_set, composite
0.2, 3, CF_material, 0.
0.2, 3, CF_material, 90.
0.2, 3, CF_material, 90.
0.2, 3, CF_material, 0.
*End Part
**  
*Part, name=Polymer
*Node
      1,          97.,   30.7030334,           0.
      2,          97.,   30.7030334,           5.
      3,   85.4683609,   45.6671448,           0.
      4,   85.4683609,   45.6671448,           5.
      5,          10.,         100.,           0.
      6,          10.,          10.,           0.
      7,         100.,          10.,           0.
      8,         100.,         100.,           0.
      9,         110.,           0.,           0.
     10,           0.,           0.,           0.
     11,           0.,         110.,           0.
     12,         110.,         110.,           0.
     13,          10.,          10.,           5.
     14,          10.,         100.,           5.
     15,         100.,         100.,           5.
     16,         100.,          10.,           5.
     17,           0.,         110.,           5.
     18,           0.,           0.,           5.
     19,         110.,           0.,           5.
     20,         110.,         110.,           5.
** ... 2263 like lines cut
*Element, type=C3D8R
  1, 1855,  739,  738, 1854,  655,   42,   41,  654
  2, 1839,  736,  735, 1853,  639,   39,   38,  653
  3,  736, 1839, 1838,  737,   39,  639,  638,   40
  4, 1864, 1875, 1851, 1842,  664,  675,  651,  642
  5, 1874,  724,  723, 1846,  674,   27,   26,  646
  6, 1839, 1853, 1857, 1862,  639,  653,  657,  662
  7, 1859, 1876, 1855, 1854,  659,  676,  655,  654
  8,  740, 1837, 1844,  741,   43,  637,  644,   44
  9, 1848,  722,  721, 1847,  648,   25,    1,  647
 10, 1845, 1874, 1846, 1860,  645,  674,  646,  660
 11, 1864, 1842, 1843, 1858,  664,  642,  643,  658
 12, 1860, 1877, 1849, 1845,  660,  677,  649,  645
 13, 1878, 1859, 1854, 1838,  678,  659,  654,  638
 14, 1857, 1840, 1871, 1867,  657,  640,  671,  667
 15,  737, 1838, 1854,  738,   40,  638,  654,   41
 16, 1837,  740,  739, 1855,  637,   43,   42,  655
 17, 1853,  735,  734, 1872,  653,   38,   37,  672
 18, 1872,  734,  733, 1873,  672,   37,   36,  673
 19,  732, 1852, 1873,  733,   35,  652,  673,   36
 20, 1852,  732,  731, 1841,  652,   35,   34,  641
** ... 1180 like lines cut
*Nset, nset=PolySet
    5,    6,    7,    8,    9,   10,   11,   12,   13,   14,   15,   16,   17,   18,   19,   20
   81,   82,   83,   84,   85,   86,   87,   88,   89,   90,   91,   92,   93,   94,   95,   96
   97,   98,   99,  100,  101,  102,  103,  104,  105,  106,  107,  108,  109,  110,  111,  112
  113,  114,  115,  116,  117,  118,  119,  120,  121,  122,  123,  124,  125,  126,  127,  128
  129,  130,  131,  132,  133,  134,  135,  136,  137,  138,  139,  140,  141,  142,  143,  144
  145,  146,  147,  148,  149,  150,  151,  152,  153,  154,  155,  156,  157,  158,  159,  160
  161,  162,  163,  164,  165,  166,  167,  168,  169,  170,  171,  172,  173,  174,  175,  176
  177,  178,  179,  180,  181,  182,  183,  184,  185,  186,  187,  188,  189,  190,  191,  192
  193,  194,  195,  196,  197,  198,  199,  200,  201,  202,  203,  204,  205,  206,  207,  208
  209,  210,  211,  212,  213,  214,  215,  216,  217,  218,  219,  220,  221,  222,  223,  224
  225,  226,  227,  228,  229,  230,  231,  232,  233,  234,  235,  236,  237,  238,  239,  240
  241,  242,  243,  244,  245,  246,  247,  248,  249,  250,  251,  252,  253,  254,  255,  256
  257,  258,  259,  260,  261,  262,  263,  264,  265,  266,  267,  268,  269,  270,  271,  272
  273,  274,  275,  276,  277,  278,  279,  280,  281,  282,  283,  284,  285,  286,  287,  288
  289,  290,  291,  292,  293,  294,  295,  296,  297,  298,  299,  300,  301,  302,  303,  304
  305,  306,  307,  308,  309,  310,  311,  312,  313,  314,  315,  316,  317,  318,  319,  320
  321,  322,  323,  324,  325,  326,  327,  328,  329,  330,  331,  332,  333,  334,  335,  336
  337,  338,  339,  340,  341,  342,  343,  344,  345,  346,  347,  348,  349,  350,  351,  352
  353,  354,  355,  356,  357,  358,  359,  360,  361,  362,  363,  364,  365,  366,  367,  368
  369,  370,  371,  372,  373,  374,  375,  376,  377,  378,  379,  380,  381,  382,  383,  384
** ... 106 like lines cut
*Elset, elset=PolySet, generate
  113,  1184,     1
*Nset, nset=_PickedSet12, internal
    3,    4,   67,   68,   69,   70,   71,   72,   73,   74,   75,   76,   77,   78,   79,   80
  743,  744,  745,  746,  747,  748,  749,  750,  751,  752, 1879
*Elset, elset=_PickedSet12, internal, generate
 105,  112,    1
*Nset, nset=_PickedSet17, internal
   21,   22,  609,  610,  611,  612,  613,  614,  615,  616,  617,  618,  619,  620,  621,  622
 1817, 1818, 1819, 1820, 1821, 1822, 1823, 1824, 1825, 1826, 2282
*Elset, elset=_PickedSet17, internal, generate
 1185,  1192,     1
*Nset, nset=_PickedSet22, internal
    1,    2,   25,   26,   27,   28,   29,   30,   31,   32,   33,   34,   35,   36,   37,   38
   39,   40,   41,   42,   43,   44,   45,   46,   47,   48,   49,   50,   51,   52,   53,   54
   55,   56,   57,   58,   59,   60,   61,   62,   63,   64,   65,   66,  637,  638,  639,  640
  641,  642,  643,  644,  645,  646,  647,  648,  649,  650,  651,  652,  653,  654,  655,  656
  657,  658,  659,  660,  661,  662,  663,  664,  665,  666,  667,  668,  669,  670,  671,  672
  673,  674,  675,  676,  677,  678,  679,  680,  681,  682,  683,  684,  685,  686,  687,  688
  689,  690,  691,  692,  693,  694,  695,  696,  697,  698,  699,  700,  701,  702,  703,  704
  705,  706,  707,  708,  709,  710,  711,  712,  713,  714,  715,  716,  717,  718,  719,  720
  721,  722,  723,  724,  725,  726,  727,  728,  729,  730,  731,  732,  733,  734,  735,  736
  737,  738,  739,  740,  741,  742, 1837, 1838, 1839, 1840, 1841, 1842, 1843, 1844, 1845, 1846
 1847, 1848, 1849, 1850, 1851, 1852, 1853, 1854, 1855, 1856, 1857, 1858, 1859, 1860, 1861, 1862
 1863, 1864, 1865, 1866, 1867, 1868, 1869, 1870, 1871, 1872, 1873, 1874, 1875, 1876, 1877, 1878
*Elset, elset=_PickedSet22, internal, generate
   1,  104,    1
*Nset, nset=_PickedSet27, internal
   23,   24,  623,  624,  625,  626,  627,  628,  629,  630,  631,  632,  633,  634,  635,  636
 1827, 1828, 1829, 1830, 1831, 1832, 1833, 1834, 1835, 1836, 2283
*Elset, elset=_PickedSet27, internal, generate
 1193,  1200,     1
*Elset, elset=_PolyTop_S2, internal, generate
  649,  1184,     1
*Surface, type=ELEMENT, name=PolyTop
_PolyTop_S2, S2
*Elset, elset=_PolyBot_S1, internal, generate
 113,  648,    1
*Surface, type=ELEMENT, name=PolyBot
_PolyBot_S1, S1
*Elset, elset=_Polymer-rivet-0_S3, internal, generate
 105,  111,    2
*Elset, elset=_Polymer-rivet-0_S6, internal, generate
 105,  111,    2
*Elset, elset=_Polymer-rivet-0_S4, internal, generate
 106,  112,    2
*Elset, elset=_Polymer-rivet-0_S5, internal, generate
 106,  112,    2
*Surface, type=ELEMENT, name=Polymer-rivet-0
_Polymer-rivet-0_S3, S3
_Polymer-rivet-0_S6, S6
_Polymer-rivet-0_S4, S4
_Polymer-rivet-0_S5, S5
*Elset, elset=_Polymer-rivet-top-0_S1, internal, generate
 109,  112,    1
*Surface, type=ELEMENT, name=Polymer-rivet-top-0
_Polymer-rivet-top-0_S1, S1
*Elset, elset=_Polymer-rivet-bot-0_S2, internal, generate
 105,  108,    1
*Surface, type=ELEMENT, name=Polymer-rivet-bot-0
_Polymer-rivet-bot-0_S2, S2
*Elset, elset=_Polymer-rivet-1_S3, internal
 1185, 1186, 1187, 1189, 1190, 1191
*Elset, elset=_Polymer-rivet-1_S6, internal
 1185, 1186, 1187, 1189, 1190, 1191
*Elset, elset=_Polymer-rivet-1_S4, internal
 1188, 1192
*Elset, elset=_Polymer-rivet-1_S5, internal
 1188, 1192
*Surface, type=ELEMENT, name=Polymer-rivet-1
_Polymer-rivet-1_S3, S3
_Polymer-rivet-1_S6, S6
_Polymer-rivet-1_S4, S4
_Polymer-rivet-1_S5, S5
*Elset, elset=_Polymer-rivet-top-1_S1, internal, generate
 1189,  1192,     1
*Surface, type=ELEMENT, name=Polymer-rivet-top-1
_Polymer-rivet-top-1_S1, S1
*Elset, elset=_Polymer-rivet-bot-1_S2, internal, generate
 1185,  1188,     1
*Surface, type=ELEMENT, name=Polymer-rivet-bot-1
_Polymer-rivet-bot-1_S2, S2
*Elset, elset=_Polymer-rivet-2_S4, internal
  1,  2,  5,  9, 16, 17, 18, 20, 21, 22, 23, 24, 25, 29, 53, 54
 57, 61, 68, 69, 70, 72, 73, 74, 75, 76, 77, 81
*Elset, elset=_Polymer-rivet-2_S6, internal
  3,  8, 15, 19, 26, 27, 28, 55, 60, 67, 71, 78, 79, 80
*Elset, elset=_Polymer-rivet-2_S3, internal
 31, 83
*Surface, type=ELEMENT, name=Polymer-rivet-2
_Polymer-rivet-2_S4, S4
_Polymer-rivet-2_S6, S6
_Polymer-rivet-2_S3, S3
*Elset, elset=_Polymer-rivet-top-2_S1, internal, generate
  53,  104,    1
*Surface, type=ELEMENT, name=Polymer-rivet-top-2
_Polymer-rivet-top-2_S1, S1
*Elset, elset=_Polymer-rivet-bot-2_S2, internal, generate
  1,  52,   1
*Surface, type=ELEMENT, name=Polymer-rivet-bot-2
_Polymer-rivet-bot-2_S2, S2
*Elset, elset=_Polymer-rivet-3_S3, internal
 1193, 1195, 1196, 1197, 1199, 1200
*Elset, elset=_Polymer-rivet-3_S6, internal
 1193, 1195, 1196, 1197, 1199, 1200
*Elset, elset=_Polymer-rivet-3_S4, internal
 1194, 1198
*Elset, elset=_Polymer-rivet-3_S5, internal
 1194, 1198
*Surface, type=ELEMENT, name=Polymer-rivet-3
_Polymer-rivet-3_S3, S3
_Polymer-rivet-3_S6, S6
_Polymer-rivet-3_S4, S4
_Polymer-rivet-3_S5, S5
*Elset, elset=_Polymer-rivet-top-3_S1, internal, generate
 1197,  1200,     1
*Surface, type=ELEMENT, name=Polymer-rivet-top-3
_Polymer-rivet-top-3_S1, S1
*Elset, elset=_Polymer-rivet-bot-3_S2, internal, generate
 1193,  1196,     1
*Surface, type=ELEMENT, name=Polymer-rivet-bot-3
_Polymer-rivet-bot-3_S2, S2
** Section: PolySec
*Solid Section, elset=_PickedSet22, material=Polymer
,
** Section: PolySec
*Solid Section, elset=_PickedSet12, material=Polymer
,
** Section: PolySec
*Solid Section, elset=PolySet, material=Polymer
,
** Section: PolySec
*Solid Section, elset=_PickedSet17, material=Polymer
,
** Section: PolySec
*Solid Section, elset=_PickedSet27, material=Polymer
,
*End Part
**  
**
** ASSEMBLY
**
*Assembly, name=Assembly
**  
*Instance, name=Polymer-1, part=Polymer
*End Instance
**  
*Instance, name=Battery-1, part=Battery
         10.,          10.,           0.
*End Instance
**  
*Instance, name=CF-1, part=CF
          0.,           0.,         -0.4
*End Instance
**  
*Instance, name=CF-2, part=CF
          0.,           0.,          5.4
*End Instance
**  
*Node
      1,          55.,          55.,    5.4000001
*Nset, nset=VerticalSupport, instance=CF-1
   3,   4,   7,   8,  62,  63,  64,  65,  66,  67,  68,  69,  70,  71,  72,  73
  74,  75,  76,  77,  78,  79,  80,  81,  82,  83,  84,  85,  86,  87,  88,  89
  90,  91,  92,  93,  94,  95,  96,  97, 170, 171, 172, 173, 174, 175, 176, 177
 178, 179, 180, 181, 182, 183, 184, 185, 186, 187, 188, 189, 190, 191, 192, 193
 194, 195, 196, 197, 198, 199, 200, 201, 202, 203, 204, 205
*Elset, elset=VerticalSupport, instance=CF-1
  630,  631,  632,  633,  634,  635,  636,  637,  638,  639,  640,  641,  642,  643,  644,  645
  646,  647,  648,  649,  650,  651,  652,  653,  654,  655,  656,  657,  658,  659,  660,  661
  662,  663,  664,  665,  666, 1370, 1371, 1372, 1373, 1374, 1375, 1376, 1377, 1378, 1379, 1380
 1381, 1382, 1383, 1384, 1385, 1386, 1387, 1388, 1389, 1390, 1391, 1392, 1393, 1394, 1395, 1396
 1397, 1398, 1399, 1400, 1401, 1402, 1403, 1404, 1405, 1406
*Nset, nset=XDirSupport, instance=CF-1
 3,
*Nset, nset=YDirSupport, instance=CF-1
 7,
*Nset, nset=rigid_loading_set, instance=CF-2
   1,   2,   5,   6,   9,  10,  11,  12,  13,  14,  15,  16,  17,  18,  19,  20
  21,  22,  23,  24,  25,  26,  27,  28,  29,  30,  31,  32,  33,  34,  35,  36
  37,  38,  39,  40,  41,  42,  43,  44, 115, 116, 117, 118, 119, 120, 121, 122
 123, 124, 125, 126, 127, 128, 129, 130, 131, 132, 133, 134, 135, 136, 137, 138
 139, 140, 141, 142, 143, 144, 145, 146, 147, 148, 149, 150, 151, 152, 835, 836
 837, 838, 839, 840, 841, 842, 843, 844, 845, 846, 847, 848, 849, 850, 851, 852
 853, 854, 855, 856, 857, 858, 859, 860, 861, 862, 863, 864, 865, 866, 867, 868
 869, 870
*Elset, elset=rigid_loading_set, instance=CF-2, generate
 667,  740,    1
*Nset, nset=_PickedSet14, internal
 1,
*Elset, elset=__PickedSurf15_SPOS, internal, instance=CF-2, generate
 667,  740,    1
*Surface, type=ELEMENT, name=_PickedSurf15, internal
__PickedSurf15_SPOS, SPOS
** Constraint: BatPoly-0
*Tie, name=BatPoly-0, adjust=no, position tolerance=1.
Battery-1.Battery-rivet-0, Polymer-1.Polymer-rivet-0
** Constraint: BatPoly-1
*Tie, name=BatPoly-1, adjust=no, position tolerance=1.
Battery-1.Battery-rivet-1, Polymer-1.Polymer-rivet-1
** Constraint: BatPoly-2
*Tie, name=BatPoly-2, adjust=no, position tolerance=1.
Battery-1.Battery-rivet-2, Polymer-1.Polymer-rivet-2
** Constraint: BatPoly-3
*Tie, name=BatPoly-3, adjust=no, position tolerance=1.
Battery-1.Battery-rivet-3, Polymer-1.Polymer-rivet-3
** Constraint: CF1Poly
*Tie, name=CF1Poly, adjust=no, position tolerance=1.
Polymer-1.PolyBot, CF-1.CFtop
** Constraint: CF1Poly-Rivet-0
*Tie, name=CF1Poly-Rivet-0, adjust=no, position tolerance=1.
Polymer-1.Polymer-rivet-bot-0, CF-1.CFtop
** Constraint: CF1Poly-Rivet-1
*Tie, name=CF1Poly-Rivet-1, adjust=no, position tolerance=1.
Polymer-1.Polymer-rivet-bot-1, CF-1.CFtop
** Constraint: CF1Poly-Rivet-2
*Tie, name=CF1Poly-Rivet-2, adjust=no, position tolerance=1.
Polymer-1.Polymer-rivet-bot-2, CF-1.CFtop
** Constraint: CF1Poly-Rivet-3
*Tie, name=CF1Poly-Rivet-3, adjust=no, position tolerance=1.
Polymer-1.Polymer-rivet-bot-3, CF-1.CFtop
** Constraint: CF2Poly
*Tie, name=CF2Poly, adjust=no, position tolerance=1.
Polymer-1.PolyTop, CF-2.CFbot
** Constraint: CF2Poly-Rivet-0
*Tie, name=CF2Poly-Rivet-0, adjust=no, position tolerance=1.
Polymer-1.Polymer-rivet-top-0, CF-2.CFbot
** Constraint: CF2Poly-Rivet-1
*Tie, name=CF2Poly-Rivet-1, adjust=no, position tolerance=1.
Polymer-1.Polymer-rivet-top-1, CF-2.CFbot
** Constraint: CF2Poly-Rivet-2
*Tie, name=CF2Poly-Rivet-2, adjust=no, position tolerance=1.
Polymer-1.Polymer-rivet-top-2, CF-2.CFbot
** Constraint: CF2Poly-Rivet-3
*Tie, name=CF2Poly-Rivet-3, adjust=no, position tolerance=1.
Polymer-1.Polymer-rivet-top-3, CF-2.CFbot
** Constraint: LoadingRigidBody
*Rigid Body, ref node=_PickedSet14, tie nset=rigid_loading_set
*End Assembly
** 
** MATERIALS
** 
*Material, name=BatOrtho
*Elastic, type=ENGINEERING CONSTANTS
1090., 109., 500., 0.15, 0.15, 0.15, 474., 474.
 474.,
*Material, name=CF_material
*Elastic, type=ENGINEERING CONSTANTS
30420.,  4023.,  4023.,   0.29,   0.29, 0.3928,  2081.,  2081.
  1440.,
*Material, name=Polymer
*Elastic
500., 0.3
** 
** INTERACTION PROPERTIES
** 
*Surface Interaction, name=NormCont
1.,
*Friction, slip tolerance=0.005
 0.3,
*Surface Behavior, pressure-overclosure=HARD
** 
** INTERACTIONS
** 
** Interaction: CF1Bat
*Contact Pair, interaction=NormCont, type=SURFACE TO SURFACE
Battery-1.BatBot, CF-1.CFtop
** Interaction: CF2Bat
*Contact Pair, interaction=NormCont, type=SURFACE TO SURFACE
Battery-1.BatTop, CF-2.CFbot
** ----------------------------------------------------------------
** 
** STEP: Loading
** 
*Step, name=Loading, nlgeom=NO
*Static
1., 1., 1e-05, 1.
** 
** BOUNDARY CONDITIONS
** 
** Name: VerticalSupport Type: Displacement/Rotation
*Boundary
VerticalSupport, 3, 3
** Name: XDirSupport Type: Displacement/Rotation
*Boundary
XDirSupport, 1, 1
** Name: YDirSupport Type: Displacement/Rotation
*Boundary
YDirSupport, 2, 2
** 
** LOADS
** 
** Name: Load-1   Type: Pressure
*Dsload
_PickedSurf15, P, 0.181818
** 
** OUTPUT REQUESTS
** 
*Restart, write, frequency=0
** 
** FIELD OUTPUT: F-Output-1
** 
*Output, field
*Node Output
U, UR, UT
*Element Output, directions=YES
EVOL, 
** 
** HISTORY OUTPUT: H-Output-1
** 
*Output, history, variable=PRESELECT
*End Step
