 Abaqus/Standard 3DEXPERIENCE R2019x                  DATE 29-May-2019 TIME 16:07:33
 SUMMARY OF JOB INFORMATION:
 STEP  INC ATT SEVERE EQUIL TOTAL  TOTAL      STEP       INC OF       DOF    IF
               DISCON ITERS ITERS  TIME/    TIME/LPF    TIME/LPF    MONITOR RIKS
               ITERS               FREQ
   1     1   1U   18    16    34  0.000      0.000      1.000     
   1     1   2U   18    16    34  0.000      0.000      0.2500    
   1     1   3U   12     1    13  0.000      0.000      0.06250   
   1     1   4U   18     5    23  0.000      0.000      0.01563   
   1     1   5    15     1    16  0.00391    0.00391    0.003906  
   1     2   1U    4     6    10  0.00391    0.00391    0.003906  
   1     2   2     3     1     4  0.00488    0.00488    0.0009766 
   1     3   1     3     1     4  0.00635    0.00635    0.001465  
   1     4   1     2     1     3  0.00854    0.00854    0.002197  
   1     5   1     1     1     2  0.0118     0.0118     0.003296  
   1     6   1     0     1     1  0.0168     0.0168     0.004944  
   1     7   1     0     1     1  0.0242     0.0242     0.007416  
   1     8   1U    0     5     5  0.0242     0.0242     0.01112   
   1     8   2U    0     5     5  0.0242     0.0242     0.002781  
   1     8   3U    0     4     4  0.0242     0.0242     0.0006952 
   1     8   4U    0     4     4  0.0242     0.0242     0.0001738 
   1     8   5U    0     5     5  0.0242     0.0242     4.345e-05 
                          
 THE ANALYSIS HAS NOT BEEN COMPLETED
