1

   Abaqus 3DEXPERIENCE R2019x                                  Date 29-May-2019   Time 13:06:01
   For demonstration or benchmarking only under agreement with Dassault Systemes or its subsidiary.

                                                                                 
                                                                                 
 STEP    1     INCREMENT     1     STEP TIME    0.00    


                        S T E P       1     S T A T I C   A N A L Y S I S


                                                                                          

     AUTOMATIC TIME CONTROL WITH -
          A SUGGESTED INITIAL TIME INCREMENT OF                 1.00    
          AND A TOTAL TIME PERIOD OF                            1.00    
          THE MINIMUM TIME INCREMENT ALLOWED IS                1.000E-05
          THE MAXIMUM TIME INCREMENT ALLOWED IS                 1.00    

     LINEAR EQUATION SOLVER TYPE         DIRECT SPARSE

 CONVERGENCE TOLERANCE PARAMETERS FOR FORCE    
     CRITERION FOR RESIDUAL FORCE     FOR A NONLINEAR PROBLEM          5.000E-03
     CRITERION FOR DISP.    CORRECTION IN A NONLINEAR PROBLEM          1.000E-02
     INITIAL VALUE OF TIME AVERAGE FORCE                               1.000E-02
     AVERAGE FORCE     IS TIME AVERAGE FORCE    
     ALTERNATE CRIT. FOR RESIDUAL FORCE     FOR A NONLINEAR PROBLEM    2.000E-02
     CRITERION FOR ZERO FORCE     RELATIVE TO TIME AVRG. FORCE         1.000E-05
     CRITERION FOR RESIDUAL FORCE     WHEN THERE IS ZERO FLUX          1.000E-05
     CRITERION FOR DISP.    CORRECTION WHEN THERE IS ZERO FLUX         1.000E-03
     CRITERION FOR RESIDUAL FORCE     FOR A LINEAR INCREMENT           1.000E-08
     FIELD CONVERSION RATIO                                             1.00    
     CRITERION FOR ZERO FORCE     REL. TO TIME AVRG. MAX. FORCE        1.000E-05
     CRITERION FOR ZERO DISP.    RELATIVE TO CHARACTERISTIC LENGTH     1.000E-08

 CONVERGENCE TOLERANCE PARAMETERS FOR MOMENT   
     CRITERION FOR RESIDUAL MOMENT    FOR A NONLINEAR PROBLEM          5.000E-03
     CRITERION FOR ROTATION CORRECTION IN A NONLINEAR PROBLEM          1.000E-02
     INITIAL VALUE OF TIME AVERAGE MOMENT                              1.000E-02
     AVERAGE MOMENT    IS TIME AVERAGE MOMENT   
     ALTERNATE CRIT. FOR RESIDUAL MOMENT    FOR A NONLINEAR PROBLEM    2.000E-02
     CRITERION FOR ZERO MOMENT    RELATIVE TO TIME AVRG. MOMENT        1.000E-05
     CRITERION FOR RESIDUAL MOMENT    WHEN THERE IS ZERO FLUX          1.000E-05
     CRITERION FOR ROTATION CORRECTION WHEN THERE IS ZERO FLUX         1.000E-03
     CRITERION FOR RESIDUAL MOMENT    FOR A LINEAR INCREMENT           1.000E-08
     FIELD CONVERSION RATIO                                             1.00    
     CRITERION FOR ZERO MOMENT    REL. TO TIME AVRG. MAX. MOMENT       1.000E-05

     VOLUMETRIC STRAIN COMPATIBILITY TOLERANCE FOR HYBRID SOLIDS       1.000E-05
     AXIAL STRAIN COMPATIBILITY TOLERANCE FOR HYBRID BEAMS             1.000E-05
     TRANS. SHEAR STRAIN COMPATIBILITY TOLERANCE FOR HYBRID BEAMS      1.000E-05
     SOFT CONTACT CONSTRAINT COMPATIBILITY TOLERANCE FOR P>P0          5.000E-03
     SOFT CONTACT CONSTRAINT COMPATIBILITY TOLERANCE FOR P=0.0         0.100    
     CONTACT FORCE ERROR TOLERANCE FOR CONVERT SDI=YES                 1.00    
     DISPLACEMENT COMPATIBILITY TOLERANCE FOR DCOUP ELEMENTS           1.000E-05
     ROTATION COMPATIBILITY TOLERANCE FOR DCOUP ELEMENTS               1.000E-05

 EQUILIBRIUM WILL BE CHECKED FOR SEVERE DISCONTINUITY ITERATIONS

 TIME INCREMENTATION CONTROL PARAMETERS:
     FIRST EQUILIBRIUM ITERATION FOR CONSECUTIVE DIVERGENCE CHECK              4
     EQUILIBRIUM ITERATION AT WHICH LOG. CONVERGENCE RATE CHECK BEGINS         8
     EQUILIBRIUM ITERATION AFTER WHICH ALTERNATE RESIDUAL IS USED              9
     MAXIMUM EQUILIBRIUM ITERATIONS ALLOWED                                   16
     EQUILIBRIUM ITERATION COUNT FOR CUT-BACK IN NEXT INCREMENT               10
     MAXIMUM EQUILIB. ITERS IN TWO INCREMENTS FOR TIME INCREMENT INCREASE      4
     MAXIMUM ITERATIONS FOR SEVERE DISCONTINUITIES                            50
     MAXIMUM ATTEMPTS ALLOWED IN AN INCREMENT                                  5
     MAXIMUM DISCON. ITERS IN TWO INCREMENTS FOR TIME INCREMENT INCREASE      50
     MAXIMUM CONTACT AUGMENTATIONS FOR *SURFACE BEHAVIOR,AUGMENTED LAGRANGE   50
     CUT-BACK FACTOR AFTER DIVERGENCE                                 0.2500    
     CUT-BACK FACTOR FOR TOO SLOW CONVERGENCE                         0.5000    
     CUT-BACK FACTOR AFTER TOO MANY EQUILIBRIUM ITERATIONS            0.7500    
     CUT-BACK FACTOR AFTER TOO MANY SEVERE DISCONTINUITY ITERATIONS   0.2500    
     CUT-BACK FACTOR AFTER PROBLEMS IN ELEMENT ASSEMBLY               0.2500    
     INCREASE FACTOR AFTER TWO INCREMENTS THAT CONVERGE QUICKLY        1.500    
     MAX. TIME INCREMENT INCREASE FACTOR ALLOWED                       1.500    
     MAX. TIME INCREMENT INCREASE FACTOR ALLOWED (DYNAMICS)            1.250    
     MAX. TIME INCREMENT INCREASE FACTOR ALLOWED (DIFFUSION)           2.000    
     MINIMUM TIME INCREMENT RATIO FOR EXTRAPOLATION TO OCCUR          0.1000    
     MAX. RATIO OF TIME INCREMENT TO STABILITY LIMIT                   1.000    
     FRACTION OF STABILITY LIMIT FOR NEW TIME INCREMENT               0.9500    
     TIME INCREMENT INCREASE FACTOR BEFORE A TIME POINT                1.000    

 CONTACT CONTROLS APPLIED TO ALL CONTACT PAIRS:
     GLOBAL STABILIZATION CONTROL IS NOT USED
     RELATIVE PENETRATION TOLERANCE FOR AUGMENTED LAGRANGE CONTACT:
          FINITE-SLIDING SURFACE-TO-SURFACE                            5.000E-02
          OTHERWISE                                                    1.000E-03

          PRINT OF INCREMENT NUMBER, TIME, ETC., EVERY    1  INCREMENTS

     THE MAXIMUM NUMBER OF INCREMENTS IN THIS STEP IS                     100

          UNSYMMETRIC MATRIX STORAGE AND SOLUTION WILL BE USED

     LINEAR EXTRAPOLATION WILL BE USED

     CHARACTERISTIC ELEMENT LENGTH      2.71    

     DETAILS REGARDING ACTUAL SOLUTION WAVEFRONT REQUESTED

     DETAILED OUTPUT OF DIAGNOSTICS TO DATABASE REQUESTED

     PRINT OF INCREMENT NUMBER, TIME, ETC., TO THE MESSAGE FILE EVERY     1  INCREMENTS

     ELEMENT OPERATIONS WILL BE CARRIED OUT IN PARALLEL USING   6 PROCESSORS

     PARALLEL CONTACT TRACKING ENABLED


     COLLECTING MODEL CONSTRAINT INFORMATION FOR OVERCONSTRAINT CHECKS

     COLLECTING STEP CONSTRAINT INFORMATION FOR OVERCONSTRAINT CHECKS
  
     ASYNCHRONOUS OUTPUT DATABASE FRAME FLUSH STARTED
  


  INCREMENT     1 STARTS. ATTEMPT NUMBER  1, TIME INCREMENT   1.00    
  
     ASYNCHRONOUS TRACKING ELEMENT LOOP STARTED
  
 
     INITIAL ELEMENT LOAD BALANCE
            PROCESS    1   THREAD     NUMBER OF ELEMENTS
                              1            1280
                              2            2816
                              3            4256
                              4            2816
                              5            2857
                              6            2304

  NUMBER OF EQUATIONS =     30777     NUMBER OF RHS =    1
  NUMBER OF FLOATING PT. OPERATIONS =  1.06E+11

  USING THE DIRECT SOLVER WITH   6 PROCESSORS

     CHECK POINT   START OF SOLVER    

     CHECK POINT  END OF SOLVER       

       ELAPSED USER TIME (SEC)      =   12.200    
       ELAPSED SYSTEM TIME (SEC)    =  0.10000    
       ELAPSED TOTAL CPU TIME (SEC) =   12.300    
       ELAPSED WALLCLOCK TIME (SEC) =          2
 

 ***WARNING: SOLVER PROBLEM. NUMERICAL SINGULARITY WHEN PROCESSING NODE 
             ASSEMBLY.1 D.O.F. 6 RATIO = 102.819E+12  .
  
     ASYNCHRONOUS TRACKING ELEMENT LOOP STARTED
  

                 1211 SEVERE DISCONTINUITIES OCCURRED DURING THIS ITERATION.
                 1211 POINTS CHANGED FROM CLOSED TO OPEN

               CONVERGENCE CHECKS FOR SEVERE DISCONTINUITY ITERATION     1

   MAX. PENETRATION ERROR 34.3379E-06  AT NODE BATTERY-1.554 OF CONTACT PAIR 
   (ASSEMBLY_BATTERY-1_BATBOT,ASSEMBLY_CF-1_CFTOP)
   MAX. CONTACT FORCE ERROR -1.47850     AT NODE BATTERY-1.2855 OF CONTACT PAIR 
   (ASSEMBLY_BATTERY-1_BATTOP,ASSEMBLY_CF-2_CFBOT)
          THE ESTIMATED CONTACT FORCE ERROR IS OUTSIDE OF CONVERGENCE TOLERANCES.

 AVERAGE FORCE                      0.178       TIME AVG. FORCE       0.178    
 LARGEST RESIDUAL FORCE             -7.28       AT NODE          1   DOF  3
   INSTANCE:                                                                                 
 LARGEST INCREMENT OF DISP.        -0.143       AT NODE        503   DOF  3
   INSTANCE: POLYMER-1                                                                       
 LARGEST CORRECTION TO DISP.       -0.143       AT NODE        503   DOF  3
   INSTANCE: POLYMER-1                                                                       
          FORCE     EQUILIBRIUM NOT ACHIEVED WITHIN TOLERANCE.

 AVERAGE MOMENT                     5.902E-02   TIME AVG. MOMENT      5.902E-02
 LARGEST RESIDUAL MOMENT             147.       AT NODE          1   DOF  6
   INSTANCE:                                                                                 
 LARGEST INCREMENT OF ROTATION     -4.469E-03   AT NODE          7   DOF  5
   INSTANCE: CF-1                                                                            
 LARGEST CORRECTION TO ROTATION    -4.469E-03   AT NODE          7   DOF  5
   INSTANCE: CF-1                                                                            
          MOMENT    EQUILIBRIUM NOT ACHIEVED WITHIN TOLERANCE.

  NUMBER OF EQUATIONS =     30777     NUMBER OF RHS =    1
  NUMBER OF FLOATING PT. OPERATIONS =  9.92E+10

  USING THE DIRECT SOLVER WITH   6 PROCESSORS

     CHECK POINT   START OF SOLVER    

     CHECK POINT  END OF SOLVER       

       ELAPSED USER TIME (SEC)      =   11.300    
       ELAPSED SYSTEM TIME (SEC)    =   0.0000    
       ELAPSED TOTAL CPU TIME (SEC) =   11.300    
       ELAPSED WALLCLOCK TIME (SEC) =          2
 

 ***WARNING: SOLVER PROBLEM. NUMERICAL SINGULARITY WHEN PROCESSING NODE 
             ASSEMBLY.1 D.O.F. 6 RATIO = 71.8738E+09 .
  
     ASYNCHRONOUS TRACKING ELEMENT LOOP STARTED
  

                 1582 SEVERE DISCONTINUITIES OCCURRED DURING THIS ITERATION.
                  529 POINTS CHANGED FROM OPEN TO CLOSED
                  640 POINTS CHANGED FROM CLOSED TO OPEN
                  413 POINTS CHANGED FROM STICKING TO SLIPPING

               CONVERGENCE CHECKS FOR SEVERE DISCONTINUITY ITERATION     2

   MAX. PENETRATION ERROR 2.32849E-03 AT NODE BATTERY-1.2663 OF CONTACT PAIR 
   (ASSEMBLY_BATTERY-1_BATTOP,ASSEMBLY_CF-2_CFBOT)
   MAX. CONTACT FORCE ERROR -2.55155     AT NODE BATTERY-1.2645 OF CONTACT PAIR 
   (ASSEMBLY_BATTERY-1_BATTOP,ASSEMBLY_CF-2_CFBOT)
          THE ESTIMATED CONTACT FORCE ERROR IS OUTSIDE OF CONVERGENCE TOLERANCES.

 AVERAGE FORCE                      0.203       TIME AVG. FORCE       0.203    
 LARGEST RESIDUAL FORCE              18.4       AT NODE          1   DOF  3
   INSTANCE:                                                                                 
 LARGEST INCREMENT OF DISP.          3.32       AT NODE         94   DOF  2
   INSTANCE: CF-1                                                                            
 LARGEST CORRECTION TO DISP.         3.31       AT NODE         95   DOF  2
   INSTANCE: CF-1                                                                            
          FORCE     EQUILIBRIUM NOT ACHIEVED WITHIN TOLERANCE.

 AVERAGE MOMENT                     0.125       TIME AVG. MOMENT      0.125    
 LARGEST RESIDUAL MOMENT            -87.8       AT NODE          1   DOF  4
   INSTANCE:                                                                                 
 LARGEST INCREMENT OF ROTATION     -3.053E-02   AT NODE         94   DOF  6
   INSTANCE: CF-1                                                                            
 LARGEST CORRECTION TO ROTATION    -3.038E-02   AT NODE         94   DOF  6
   INSTANCE: CF-1                                                                            
          MOMENT    EQUILIBRIUM NOT ACHIEVED WITHIN TOLERANCE.

  NUMBER OF EQUATIONS =     30777     NUMBER OF RHS =    1
  NUMBER OF FLOATING PT. OPERATIONS =  1.00E+11

  USING THE DIRECT SOLVER WITH   6 PROCESSORS

     CHECK POINT   START OF SOLVER    

     CHECK POINT  END OF SOLVER       

       ELAPSED USER TIME (SEC)      =   11.700    
       ELAPSED SYSTEM TIME (SEC)    =   0.0000    
       ELAPSED TOTAL CPU TIME (SEC) =   11.700    
       ELAPSED WALLCLOCK TIME (SEC) =          2
 

 ***WARNING: SOLVER PROBLEM. NUMERICAL SINGULARITY WHEN PROCESSING NODE 
             ASSEMBLY.1 D.O.F. 6 RATIO = 12.6248E+09 .
  
     ASYNCHRONOUS TRACKING ELEMENT LOOP STARTED
  

                  778 SEVERE DISCONTINUITIES OCCURRED DURING THIS ITERATION.
                  208 POINTS CHANGED FROM OPEN TO CLOSED
                  472 POINTS CHANGED FROM CLOSED TO OPEN
                    9 POINTS CHANGED FROM SLIPPING TO STICKING
                   89 POINTS CHANGED FROM STICKING TO SLIPPING

               CONVERGENCE CHECKS FOR SEVERE DISCONTINUITY ITERATION     3

   MAX. PENETRATION ERROR 542.120E-06   AT NODE BATTERY-1.517 OF CONTACT PAIR 
   (ASSEMBLY_BATTERY-1_BATBOT,ASSEMBLY_CF-1_CFTOP)
   MAX. CONTACT FORCE ERROR -1.14121     AT NODE BATTERY-1.3226 OF CONTACT PAIR 
   (ASSEMBLY_BATTERY-1_BATTOP,ASSEMBLY_CF-2_CFBOT)
          THE ESTIMATED CONTACT FORCE ERROR IS OUTSIDE OF CONVERGENCE TOLERANCES.

 AVERAGE FORCE                      0.204       TIME AVG. FORCE       0.204    
 LARGEST RESIDUAL FORCE              3.60       AT NODE          1   DOF  3
   INSTANCE:                                                                                 
 LARGEST INCREMENT OF DISP.          1.66       AT NODE          7   DOF  1
   INSTANCE: CF-1                                                                            
 LARGEST CORRECTION TO DISP.         4.95       AT NODE          7   DOF  1
   INSTANCE: CF-1                                                                            
          FORCE     EQUILIBRIUM NOT ACHIEVED WITHIN TOLERANCE.

 AVERAGE MOMENT                     0.131       TIME AVG. MOMENT      0.131    
 LARGEST RESIDUAL MOMENT            -36.4       AT NODE          1   DOF  4
   INSTANCE:                                                                                 
 LARGEST INCREMENT OF ROTATION      1.525E-02   AT NODE         94   DOF  6
   INSTANCE: CF-2                                                                            
 LARGEST CORRECTION TO ROTATION     4.502E-02   AT NODE        658   DOF  6
   INSTANCE: CF-2                                                                            
          MOMENT    EQUILIBRIUM NOT ACHIEVED WITHIN TOLERANCE.

  NUMBER OF EQUATIONS =     30777     NUMBER OF RHS =    1
  NUMBER OF FLOATING PT. OPERATIONS =  9.69E+10

  USING THE DIRECT SOLVER WITH   6 PROCESSORS

     CHECK POINT   START OF SOLVER    

     CHECK POINT  END OF SOLVER       

       ELAPSED USER TIME (SEC)      =   11.000    
       ELAPSED SYSTEM TIME (SEC)    =   0.0000    
       ELAPSED TOTAL CPU TIME (SEC) =   11.000    
       ELAPSED WALLCLOCK TIME (SEC) =          2
 

 ***WARNING: SOLVER PROBLEM. NUMERICAL SINGULARITY WHEN PROCESSING NODE 
             ASSEMBLY.1 D.O.F. 6 RATIO = 11.3077E+09 .
  
     ASYNCHRONOUS TRACKING ELEMENT LOOP STARTED
  

                  552 SEVERE DISCONTINUITIES OCCURRED DURING THIS ITERATION.
                  143 POINTS CHANGED FROM OPEN TO CLOSED
                  308 POINTS CHANGED FROM CLOSED TO OPEN
                  101 POINTS CHANGED FROM STICKING TO SLIPPING

               CONVERGENCE CHECKS FOR SEVERE DISCONTINUITY ITERATION     4

   MAX. PENETRATION ERROR 458.891E-06   AT NODE BATTERY-1.3288 OF CONTACT PAIR 
   (ASSEMBLY_BATTERY-1_BATTOP,ASSEMBLY_CF-2_CFBOT)
   MAX. CONTACT FORCE ERROR -1.14990     AT NODE BATTERY-1.3158 OF CONTACT PAIR 
   (ASSEMBLY_BATTERY-1_BATTOP,ASSEMBLY_CF-2_CFBOT)
          THE ESTIMATED CONTACT FORCE ERROR IS OUTSIDE OF CONVERGENCE TOLERANCES.

 AVERAGE FORCE                      0.204       TIME AVG. FORCE       0.204    
 LARGEST RESIDUAL FORCE            -0.657       AT NODE       3158   DOF  3
   INSTANCE: BATTERY-1                                                                       
 LARGEST INCREMENT OF DISP.          1.06       AT NODE          7   DOF  1
   INSTANCE: CF-1                                                                            
 LARGEST CORRECTION TO DISP.        0.607       AT NODE        221   DOF  2
   INSTANCE: POLYMER-1                                                                       
          FORCE     EQUILIBRIUM NOT ACHIEVED WITHIN TOLERANCE.

 AVERAGE MOMENT                     0.132       TIME AVG. MOMENT      0.132    
 LARGEST RESIDUAL MOMENT            -3.10       AT NODE          1   DOF  4
   INSTANCE:                                                                                 
 LARGEST INCREMENT OF ROTATION      9.740E-03   AT NODE         94   DOF  6
   INSTANCE: CF-2                                                                            
 LARGEST CORRECTION TO ROTATION    -5.520E-03   AT NODE         93   DOF  6
   INSTANCE: CF-1                                                                            
          MOMENT    EQUILIBRIUM NOT ACHIEVED WITHIN TOLERANCE.

  NUMBER OF EQUATIONS =     30777     NUMBER OF RHS =    1
  NUMBER OF FLOATING PT. OPERATIONS =  9.21E+10

  USING THE DIRECT SOLVER WITH   6 PROCESSORS

     CHECK POINT   START OF SOLVER    

     CHECK POINT  END OF SOLVER       

       ELAPSED USER TIME (SEC)      =   11.000    
       ELAPSED SYSTEM TIME (SEC)    =  0.10000    
       ELAPSED TOTAL CPU TIME (SEC) =   11.100    
       ELAPSED WALLCLOCK TIME (SEC) =          2
 

 ***WARNING: SOLVER PROBLEM. NUMERICAL SINGULARITY WHEN PROCESSING NODE 
             ASSEMBLY.1 D.O.F. 6 RATIO = 12.4316E+09 .
  
     ASYNCHRONOUS TRACKING ELEMENT LOOP STARTED
  

                  313 SEVERE DISCONTINUITIES OCCURRED DURING THIS ITERATION.
                   73 POINTS CHANGED FROM OPEN TO CLOSED
                  194 POINTS CHANGED FROM CLOSED TO OPEN
                   46 POINTS CHANGED FROM STICKING TO SLIPPING

               CONVERGENCE CHECKS FOR SEVERE DISCONTINUITY ITERATION     5

   MAX. PENETRATION ERROR 276.938E-06   AT NODE BATTERY-1.3433 OF CONTACT PAIR 
   (ASSEMBLY_BATTERY-1_BATTOP,ASSEMBLY_CF-2_CFBOT)
   MAX. CONTACT FORCE ERROR -1.07988     AT NODE BATTERY-1.3218 OF CONTACT PAIR 
   (ASSEMBLY_BATTERY-1_BATTOP,ASSEMBLY_CF-2_CFBOT)
          THE ESTIMATED CONTACT FORCE ERROR IS OUTSIDE OF CONVERGENCE TOLERANCES.

 AVERAGE FORCE                      0.204       TIME AVG. FORCE       0.204    
 LARGEST RESIDUAL FORCE            -0.622       AT NODE       3218   DOF  3
   INSTANCE: BATTERY-1                                                                       
 LARGEST INCREMENT OF DISP.         0.954       AT NODE          7   DOF  1
   INSTANCE: CF-1                                                                            
 LARGEST CORRECTION TO DISP.        0.104       AT NODE         93   DOF  2
   INSTANCE: CF-1                                                                            
          FORCE     EQUILIBRIUM NOT ACHIEVED WITHIN TOLERANCE.

 AVERAGE MOMENT                     0.133       TIME AVG. MOMENT      0.133    
 LARGEST RESIDUAL MOMENT           -7.875E-04   AT NODE       1289   DOF  5
   INSTANCE: CF-1                                                                            
 LARGEST INCREMENT OF ROTATION      8.793E-03   AT NODE         94   DOF  6
   INSTANCE: CF-2                                                                            
 LARGEST CORRECTION TO ROTATION    -9.505E-04   AT NODE        568   DOF  6
   INSTANCE: CF-2                                                                            
          MOMENT    EQUILIBRIUM NOT ACHIEVED WITHIN TOLERANCE.

  NUMBER OF EQUATIONS =     30777     NUMBER OF RHS =    1
  NUMBER OF FLOATING PT. OPERATIONS =  8.73E+10

  USING THE DIRECT SOLVER WITH   6 PROCESSORS

     CHECK POINT   START OF SOLVER    

     CHECK POINT  END OF SOLVER       

       ELAPSED USER TIME (SEC)      =   10.200    
       ELAPSED SYSTEM TIME (SEC)    =   0.0000    
       ELAPSED TOTAL CPU TIME (SEC) =   10.200    
       ELAPSED WALLCLOCK TIME (SEC) =          2
 

 ***WARNING: SOLVER PROBLEM. NUMERICAL SINGULARITY WHEN PROCESSING NODE 
             ASSEMBLY.1 D.O.F. 6 RATIO = 13.3520E+09 .
  
     ASYNCHRONOUS TRACKING ELEMENT LOOP STARTED
  

                  290 SEVERE DISCONTINUITIES OCCURRED DURING THIS ITERATION.
                   96 POINTS CHANGED FROM OPEN TO CLOSED
                  137 POINTS CHANGED FROM CLOSED TO OPEN
                   57 POINTS CHANGED FROM STICKING TO SLIPPING

               CONVERGENCE CHECKS FOR SEVERE DISCONTINUITY ITERATION     6

   MAX. PENETRATION ERROR 442.362E-06   AT NODE BATTERY-1.3478 OF CONTACT PAIR 
   (ASSEMBLY_BATTERY-1_BATTOP,ASSEMBLY_CF-2_CFBOT)
   MAX. CONTACT FORCE ERROR 859.565E-03   AT NODE BATTERY-1.3478 OF CONTACT 
   PAIR (ASSEMBLY_BATTERY-1_BATTOP,ASSEMBLY_CF-2_CFBOT)
          THE ESTIMATED CONTACT FORCE ERROR IS OUTSIDE OF CONVERGENCE TOLERANCES.

 AVERAGE FORCE                      0.203       TIME AVG. FORCE       0.203    
 LARGEST RESIDUAL FORCE            -0.470       AT NODE       3371   DOF  3
   INSTANCE: BATTERY-1                                                                       
 LARGEST INCREMENT OF DISP.         0.826       AT NODE          7   DOF  1
   INSTANCE: CF-1                                                                            
 LARGEST CORRECTION TO DISP.        0.128       AT NODE         94   DOF  2
   INSTANCE: CF-1                                                                            
          FORCE     EQUILIBRIUM NOT ACHIEVED WITHIN TOLERANCE.

 AVERAGE MOMENT                     0.133       TIME AVG. MOMENT      0.133    
 LARGEST RESIDUAL MOMENT            1.183E-03   AT NODE          1   DOF  6
   INSTANCE:                                                                                 
 LARGEST INCREMENT OF ROTATION      8.524E-03   AT NODE        608   DOF  5
   INSTANCE: CF-2                                                                            
 LARGEST CORRECTION TO ROTATION    -1.168E-03   AT NODE        533   DOF  6
   INSTANCE: CF-2                                                                            
          MOMENT    EQUILIBRIUM NOT ACHIEVED WITHIN TOLERANCE.

  NUMBER OF EQUATIONS =     30777     NUMBER OF RHS =    1
  NUMBER OF FLOATING PT. OPERATIONS =  8.53E+10

  USING THE DIRECT SOLVER WITH   6 PROCESSORS

     CHECK POINT   START OF SOLVER    

     CHECK POINT  END OF SOLVER       

       ELAPSED USER TIME (SEC)      =   10.400    
       ELAPSED SYSTEM TIME (SEC)    =   0.0000    
       ELAPSED TOTAL CPU TIME (SEC) =   10.400    
       ELAPSED WALLCLOCK TIME (SEC) =          2
 

 ***WARNING: SOLVER PROBLEM. NUMERICAL SINGULARITY WHEN PROCESSING NODE 
             ASSEMBLY.1 D.O.F. 6 RATIO = 13.9826E+09 .
  
     ASYNCHRONOUS TRACKING ELEMENT LOOP STARTED
  

                  205 SEVERE DISCONTINUITIES OCCURRED DURING THIS ITERATION.
                   59 POINTS CHANGED FROM OPEN TO CLOSED
                  113 POINTS CHANGED FROM CLOSED TO OPEN
                   33 POINTS CHANGED FROM STICKING TO SLIPPING

               CONVERGENCE CHECKS FOR SEVERE DISCONTINUITY ITERATION     7

   MAX. PENETRATION ERROR 404.307E-06   AT NODE BATTERY-1.3554 OF CONTACT PAIR 
   (ASSEMBLY_BATTERY-1_BATTOP,ASSEMBLY_CF-2_CFBOT)
   MAX. CONTACT FORCE ERROR -988.591E-03   AT NODE BATTERY-1.2639 OF CONTACT 
   PAIR (ASSEMBLY_BATTERY-1_BATTOP,ASSEMBLY_CF-2_CFBOT)
          THE ESTIMATED CONTACT FORCE ERROR IS OUTSIDE OF CONVERGENCE TOLERANCES.

 AVERAGE FORCE                      0.203       TIME AVG. FORCE       0.203    
 LARGEST RESIDUAL FORCE             0.488       AT NODE        496   DOF  3
   INSTANCE: CF-2                                                                            
 LARGEST INCREMENT OF DISP.         0.793       AT NODE          7   DOF  1
   INSTANCE: CF-1                                                                            
 LARGEST CORRECTION TO DISP.        3.312E-02   AT NODE         94   DOF  2
   INSTANCE: CF-1                                                                            
          FORCE     EQUILIBRIUM NOT ACHIEVED WITHIN TOLERANCE.

 AVERAGE MOMENT                     0.133       TIME AVG. MOMENT      0.133    
 LARGEST RESIDUAL MOMENT            9.833E-03   AT NODE        427   DOF  5
   INSTANCE: CF-2                                                                            
 LARGEST INCREMENT OF ROTATION      8.371E-03   AT NODE        608   DOF  5
   INSTANCE: CF-2                                                                            
 LARGEST CORRECTION TO ROTATION     4.541E-04   AT NODE        500   DOF  5
   INSTANCE: CF-2                                                                            
          MOMENT    EQUILIBRIUM NOT ACHIEVED WITHIN TOLERANCE.

  NUMBER OF EQUATIONS =     30777     NUMBER OF RHS =    1
  NUMBER OF FLOATING PT. OPERATIONS =  7.84E+10

  USING THE DIRECT SOLVER WITH   6 PROCESSORS

     CHECK POINT   START OF SOLVER    

     CHECK POINT  END OF SOLVER       

       ELAPSED USER TIME (SEC)      =   9.2000    
       ELAPSED SYSTEM TIME (SEC)    =  0.10000    
       ELAPSED TOTAL CPU TIME (SEC) =   9.3000    
       ELAPSED WALLCLOCK TIME (SEC) =          2
 

 ***WARNING: SOLVER PROBLEM. NUMERICAL SINGULARITY WHEN PROCESSING NODE 
             ASSEMBLY.1 D.O.F. 6 RATIO = 14.4919E+09 .
  
     ASYNCHRONOUS TRACKING ELEMENT LOOP STARTED
  

                  157 SEVERE DISCONTINUITIES OCCURRED DURING THIS ITERATION.
                   43 POINTS CHANGED FROM OPEN TO CLOSED
                   92 POINTS CHANGED FROM CLOSED TO OPEN
                    1 POINTS CHANGED FROM SLIPPING TO STICKING
                   21 POINTS CHANGED FROM STICKING TO SLIPPING

               CONVERGENCE CHECKS FOR SEVERE DISCONTINUITY ITERATION     8

   MAX. PENETRATION ERROR 225.670E-06   AT NODE BATTERY-1.3584 OF CONTACT PAIR 
   (ASSEMBLY_BATTERY-1_BATTOP,ASSEMBLY_CF-2_CFBOT)
   MAX. CONTACT FORCE ERROR -1.15022     AT NODE BATTERY-1.2813 OF CONTACT PAIR 
   (ASSEMBLY_BATTERY-1_BATTOP,ASSEMBLY_CF-2_CFBOT)
          THE ESTIMATED CONTACT FORCE ERROR IS OUTSIDE OF CONVERGENCE TOLERANCES.

 AVERAGE FORCE                      0.203       TIME AVG. FORCE       0.203    
 LARGEST RESIDUAL FORCE            -0.669       AT NODE       2813   DOF  3
   INSTANCE: BATTERY-1                                                                       
 LARGEST INCREMENT OF DISP.         0.802       AT NODE          7   DOF  1
   INSTANCE: CF-1                                                                            
 LARGEST CORRECTION TO DISP.        9.883E-03   AT NODE         98   DOF  1
   INSTANCE: CF-2                                                                            
          FORCE     EQUILIBRIUM NOT ACHIEVED WITHIN TOLERANCE.

 AVERAGE MOMENT                     0.133       TIME AVG. MOMENT      0.133    
 LARGEST RESIDUAL MOMENT            7.386E-03   AT NODE        430   DOF  5
   INSTANCE: CF-2                                                                            
 LARGEST INCREMENT OF ROTATION      8.286E-03   AT NODE        572   DOF  5
   INSTANCE: CF-2                                                                            
 LARGEST CORRECTION TO ROTATION     5.768E-04   AT NODE        466   DOF  5
   INSTANCE: CF-2                                                                            
          MOMENT    EQUILIBRIUM NOT ACHIEVED WITHIN TOLERANCE.

  NUMBER OF EQUATIONS =     30777     NUMBER OF RHS =    1
  NUMBER OF FLOATING PT. OPERATIONS =  7.72E+10

  USING THE DIRECT SOLVER WITH   6 PROCESSORS

     CHECK POINT   START OF SOLVER    

     CHECK POINT  END OF SOLVER       

       ELAPSED USER TIME (SEC)      =   9.0000    
       ELAPSED SYSTEM TIME (SEC)    =  0.10000    
       ELAPSED TOTAL CPU TIME (SEC) =   9.1000    
       ELAPSED WALLCLOCK TIME (SEC) =          1
 

 ***WARNING: SOLVER PROBLEM. NUMERICAL SINGULARITY WHEN PROCESSING NODE 
             ASSEMBLY.1 D.O.F. 6 RATIO = 14.8830E+09 .
  
     ASYNCHRONOUS TRACKING ELEMENT LOOP STARTED
  

                  124 SEVERE DISCONTINUITIES OCCURRED DURING THIS ITERATION.
                   53 POINTS CHANGED FROM OPEN TO CLOSED
                   63 POINTS CHANGED FROM CLOSED TO OPEN
                    8 POINTS CHANGED FROM STICKING TO SLIPPING

               CONVERGENCE CHECKS FOR SEVERE DISCONTINUITY ITERATION     9

   MAX. PENETRATION ERROR 326.822E-06   AT NODE BATTERY-1.3591 OF CONTACT PAIR 
   (ASSEMBLY_BATTERY-1_BATTOP,ASSEMBLY_CF-2_CFBOT)
   MAX. CONTACT FORCE ERROR -1.55043     AT NODE BATTERY-1.2636 OF CONTACT PAIR 
   (ASSEMBLY_BATTERY-1_BATTOP,ASSEMBLY_CF-2_CFBOT)
          THE ESTIMATED CONTACT FORCE ERROR IS OUTSIDE OF CONVERGENCE TOLERANCES.

 AVERAGE FORCE                      0.203       TIME AVG. FORCE       0.203    
 LARGEST RESIDUAL FORCE            -0.486       AT NODE       3513   DOF  3
   INSTANCE: BATTERY-1                                                                       
 LARGEST INCREMENT OF DISP.         0.801       AT NODE          7   DOF  1
   INSTANCE: CF-1                                                                            
 LARGEST CORRECTION TO DISP.        3.153E-03   AT NODE        531   DOF  3
   INSTANCE: CF-2                                                                            
          FORCE     EQUILIBRIUM NOT ACHIEVED WITHIN TOLERANCE.

 AVERAGE MOMENT                     0.133       TIME AVG. MOMENT      0.133    
 LARGEST RESIDUAL MOMENT           -0.132       AT NODE          1   DOF  4
   INSTANCE:                                                                                 
 LARGEST INCREMENT OF ROTATION      8.268E-03   AT NODE        572   DOF  5
   INSTANCE: CF-2                                                                            
 LARGEST CORRECTION TO ROTATION     5.194E-04   AT NODE        424   DOF  5
   INSTANCE: CF-2                                                                            
          MOMENT    EQUILIBRIUM NOT ACHIEVED WITHIN TOLERANCE.

  NUMBER OF EQUATIONS =     30777     NUMBER OF RHS =    1
  NUMBER OF FLOATING PT. OPERATIONS =  7.65E+10

  USING THE DIRECT SOLVER WITH   6 PROCESSORS

     CHECK POINT   START OF SOLVER    

     CHECK POINT  END OF SOLVER       

       ELAPSED USER TIME (SEC)      =   8.8000    
       ELAPSED SYSTEM TIME (SEC)    =   0.0000    
       ELAPSED TOTAL CPU TIME (SEC) =   8.8000    
       ELAPSED WALLCLOCK TIME (SEC) =          2
 

 ***WARNING: SOLVER PROBLEM. NUMERICAL SINGULARITY WHEN PROCESSING NODE 
             ASSEMBLY.1 D.O.F. 6 RATIO = 15.2792E+09 .
  
     ASYNCHRONOUS TRACKING ELEMENT LOOP STARTED
  

                  108 SEVERE DISCONTINUITIES OCCURRED DURING THIS ITERATION.
                   25 POINTS CHANGED FROM OPEN TO CLOSED
                   79 POINTS CHANGED FROM CLOSED TO OPEN
                    4 POINTS CHANGED FROM STICKING TO SLIPPING

               CONVERGENCE CHECKS FOR SEVERE DISCONTINUITY ITERATION    10

   MAX. PENETRATION ERROR 139.590E-06   AT NODE BATTERY-1.3930 OF CONTACT PAIR 
   (ASSEMBLY_BATTERY-1_BATTOP,ASSEMBLY_CF-2_CFBOT)
   MAX. CONTACT FORCE ERROR -649.133E-03   AT NODE BATTERY-1.3584 OF CONTACT 
   PAIR (ASSEMBLY_BATTERY-1_BATTOP,ASSEMBLY_CF-2_CFBOT)
          THE ESTIMATED CONTACT FORCE ERROR IS OUTSIDE OF CONVERGENCE TOLERANCES.

 AVERAGE FORCE                      0.203       TIME AVG. FORCE       0.203    
 LARGEST RESIDUAL FORCE            -0.401       AT NODE       3584   DOF  3
   INSTANCE: BATTERY-1                                                                       
 LARGEST INCREMENT OF DISP.         0.793       AT NODE          7   DOF  1
   INSTANCE: CF-1                                                                            
 LARGEST CORRECTION TO DISP.        8.175E-03   AT NODE         94   DOF  2
   INSTANCE: CF-1                                                                            
          FORCE     EQUILIBRIUM NOT ACHIEVED WITHIN TOLERANCE.

 AVERAGE MOMENT                     0.133       TIME AVG. MOMENT      0.133    
 LARGEST RESIDUAL MOMENT            3.096E-03   AT NODE        394   DOF  5
   INSTANCE: CF-2                                                                            
 LARGEST INCREMENT OF ROTATION      8.280E-03   AT NODE        572   DOF  5
   INSTANCE: CF-2                                                                            
 LARGEST CORRECTION TO ROTATION     4.275E-04   AT NODE        423   DOF  5
   INSTANCE: CF-2                                                                            
          MOMENT    EQUILIBRIUM NOT ACHIEVED WITHIN TOLERANCE.

  NUMBER OF EQUATIONS =     30777     NUMBER OF RHS =    1
  NUMBER OF FLOATING PT. OPERATIONS =  7.50E+10

  USING THE DIRECT SOLVER WITH   6 PROCESSORS

     CHECK POINT   START OF SOLVER    

     CHECK POINT  END OF SOLVER       

       ELAPSED USER TIME (SEC)      =   8.8000    
       ELAPSED SYSTEM TIME (SEC)    =   0.0000    
       ELAPSED TOTAL CPU TIME (SEC) =   8.8000    
       ELAPSED WALLCLOCK TIME (SEC) =          2
 

 ***WARNING: SOLVER PROBLEM. NUMERICAL SINGULARITY WHEN PROCESSING NODE 
             ASSEMBLY.1 D.O.F. 6 RATIO = 15.5757E+09 .
  
     ASYNCHRONOUS TRACKING ELEMENT LOOP STARTED
  

                   94 SEVERE DISCONTINUITIES OCCURRED DURING THIS ITERATION.
                   40 POINTS CHANGED FROM OPEN TO CLOSED
                   50 POINTS CHANGED FROM CLOSED TO OPEN
                    4 POINTS CHANGED FROM STICKING TO SLIPPING

               CONVERGENCE CHECKS FOR SEVERE DISCONTINUITY ITERATION    11

   MAX. PENETRATION ERROR 274.967E-06   AT NODE BATTERY-1.3656 OF CONTACT PAIR 
   (ASSEMBLY_BATTERY-1_BATTOP,ASSEMBLY_CF-2_CFBOT)
   MAX. CONTACT FORCE ERROR -621.656E-03   AT NODE BATTERY-1.3591 OF CONTACT 
   PAIR (ASSEMBLY_BATTERY-1_BATTOP,ASSEMBLY_CF-2_CFBOT)
          THE ESTIMATED CONTACT FORCE ERROR IS OUTSIDE OF CONVERGENCE TOLERANCES.

 AVERAGE FORCE                      0.203       TIME AVG. FORCE       0.203    
 LARGEST RESIDUAL FORCE             0.413       AT NODE        383   DOF  3
   INSTANCE: CF-2                                                                            
 LARGEST INCREMENT OF DISP.         0.778       AT NODE          7   DOF  1
   INSTANCE: CF-1                                                                            
 LARGEST CORRECTION TO DISP.        1.469E-02   AT NODE         93   DOF  2
   INSTANCE: CF-1                                                                            
          FORCE     EQUILIBRIUM NOT ACHIEVED WITHIN TOLERANCE.

 AVERAGE MOMENT                     0.133       TIME AVG. MOMENT      0.133    
 LARGEST RESIDUAL MOMENT            2.704E-02   AT NODE          1   DOF  5
   INSTANCE:                                                                                 
 LARGEST INCREMENT OF ROTATION      8.294E-03   AT NODE        572   DOF  5
   INSTANCE: CF-2                                                                            
 LARGEST CORRECTION TO ROTATION     5.051E-04   AT NODE        383   DOF  5
   INSTANCE: CF-2                                                                            
          MOMENT    EQUILIBRIUM NOT ACHIEVED WITHIN TOLERANCE.

  NUMBER OF EQUATIONS =     30777     NUMBER OF RHS =    1
  NUMBER OF FLOATING PT. OPERATIONS =  7.48E+10

  USING THE DIRECT SOLVER WITH   6 PROCESSORS

     CHECK POINT   START OF SOLVER    

     CHECK POINT  END OF SOLVER       

       ELAPSED USER TIME (SEC)      =   8.7000    
       ELAPSED SYSTEM TIME (SEC)    =   0.0000    
       ELAPSED TOTAL CPU TIME (SEC) =   8.7000    
       ELAPSED WALLCLOCK TIME (SEC) =          1
 

 ***WARNING: SOLVER PROBLEM. NUMERICAL SINGULARITY WHEN PROCESSING NODE 
             ASSEMBLY.1 D.O.F. 6 RATIO = 15.9347E+09 .
  
     ASYNCHRONOUS TRACKING ELEMENT LOOP STARTED
  

                   79 SEVERE DISCONTINUITIES OCCURRED DURING THIS ITERATION.
                   20 POINTS CHANGED FROM OPEN TO CLOSED
                   53 POINTS CHANGED FROM CLOSED TO OPEN
                    6 POINTS CHANGED FROM STICKING TO SLIPPING

               CONVERGENCE CHECKS FOR SEVERE DISCONTINUITY ITERATION    12

   MAX. PENETRATION ERROR 171.420E-06   AT NODE BATTERY-1.904 OF CONTACT PAIR 
   (ASSEMBLY_BATTERY-1_BATBOT,ASSEMBLY_CF-1_CFTOP)
   MAX. CONTACT FORCE ERROR -595.201E-03   AT NODE BATTERY-1.3628 OF CONTACT 
   PAIR (ASSEMBLY_BATTERY-1_BATTOP,ASSEMBLY_CF-2_CFBOT)
          THE ESTIMATED CONTACT FORCE ERROR IS OUTSIDE OF CONVERGENCE TOLERANCES.

 AVERAGE FORCE                      0.203       TIME AVG. FORCE       0.203    
 LARGEST RESIDUAL FORCE             0.475       AT NODE        347   DOF  3
   INSTANCE: CF-2                                                                            
 LARGEST INCREMENT OF DISP.         0.779       AT NODE          7   DOF  1
   INSTANCE: CF-1                                                                            
 LARGEST CORRECTION TO DISP.        3.263E-03   AT NODE        455   DOF  3
   INSTANCE: CF-2                                                                            
          FORCE     EQUILIBRIUM NOT ACHIEVED WITHIN TOLERANCE.

 AVERAGE MOMENT                     0.133       TIME AVG. MOMENT      0.133    
 LARGEST RESIDUAL MOMENT           -6.769E-03   AT NODE          1   DOF  4
   INSTANCE:                                                                                 
 LARGEST INCREMENT OF ROTATION      8.303E-03   AT NODE        572   DOF  5
   INSTANCE: CF-2                                                                            
 LARGEST CORRECTION TO ROTATION     4.800E-04   AT NODE        383   DOF  5
   INSTANCE: CF-2                                                                            
          MOMENT    EQUILIBRIUM NOT ACHIEVED WITHIN TOLERANCE.

  NUMBER OF EQUATIONS =     30777     NUMBER OF RHS =    1
  NUMBER OF FLOATING PT. OPERATIONS =  7.47E+10

  USING THE DIRECT SOLVER WITH   6 PROCESSORS

     CHECK POINT   START OF SOLVER    

     CHECK POINT  END OF SOLVER       

       ELAPSED USER TIME (SEC)      =   8.8000    
       ELAPSED SYSTEM TIME (SEC)    =  0.10000    
       ELAPSED TOTAL CPU TIME (SEC) =   8.9000    
       ELAPSED WALLCLOCK TIME (SEC) =          2
 

 ***WARNING: SOLVER PROBLEM. NUMERICAL SINGULARITY WHEN PROCESSING NODE 
             ASSEMBLY.1 D.O.F. 6 RATIO = 16.1734E+09 .
  
     ASYNCHRONOUS TRACKING ELEMENT LOOP STARTED
  

                   62 SEVERE DISCONTINUITIES OCCURRED DURING THIS ITERATION.
                   24 POINTS CHANGED FROM OPEN TO CLOSED
                   35 POINTS CHANGED FROM CLOSED TO OPEN
                    3 POINTS CHANGED FROM STICKING TO SLIPPING

               CONVERGENCE CHECKS FOR SEVERE DISCONTINUITY ITERATION    13

   MAX. PENETRATION ERROR 138.475E-06   AT NODE BATTERY-1.932 OF CONTACT PAIR 
   (ASSEMBLY_BATTERY-1_BATBOT,ASSEMBLY_CF-1_CFTOP)
   MAX. CONTACT FORCE ERROR -617.134E-03   AT NODE BATTERY-1.3658 OF CONTACT 
   PAIR (ASSEMBLY_BATTERY-1_BATTOP,ASSEMBLY_CF-2_CFBOT)
          THE ESTIMATED CONTACT FORCE ERROR IS OUTSIDE OF CONVERGENCE TOLERANCES.

 AVERAGE FORCE                      0.203       TIME AVG. FORCE       0.203    
 LARGEST RESIDUAL FORCE             0.532       AT NODE        311   DOF  3
   INSTANCE: CF-2                                                                            
 LARGEST INCREMENT OF DISP.         0.767       AT NODE          7   DOF  1
   INSTANCE: CF-1                                                                            
 LARGEST CORRECTION TO DISP.        1.239E-02   AT NODE         93   DOF  2
   INSTANCE: CF-1                                                                            
          FORCE     EQUILIBRIUM NOT ACHIEVED WITHIN TOLERANCE.

 AVERAGE MOMENT                     0.133       TIME AVG. MOMENT      0.133    
 LARGEST RESIDUAL MOMENT           -1.613E-02   AT NODE          1   DOF  4
   INSTANCE:                                                                                 
 LARGEST INCREMENT OF ROTATION      8.309E-03   AT NODE        572   DOF  5
   INSTANCE: CF-2                                                                            
 LARGEST CORRECTION TO ROTATION     5.381E-04   AT NODE        347   DOF  5
   INSTANCE: CF-2                                                                            
          MOMENT    EQUILIBRIUM NOT ACHIEVED WITHIN TOLERANCE.

  NUMBER OF EQUATIONS =     30777     NUMBER OF RHS =    1
  NUMBER OF FLOATING PT. OPERATIONS =  7.44E+10

  USING THE DIRECT SOLVER WITH   6 PROCESSORS

     CHECK POINT   START OF SOLVER    

     CHECK POINT  END OF SOLVER       

       ELAPSED USER TIME (SEC)      =   8.6000    
       ELAPSED SYSTEM TIME (SEC)    =   0.0000    
       ELAPSED TOTAL CPU TIME (SEC) =   8.6000    
       ELAPSED WALLCLOCK TIME (SEC) =          1
 

 ***WARNING: SOLVER PROBLEM. NUMERICAL SINGULARITY WHEN PROCESSING NODE 
             ASSEMBLY.1 D.O.F. 6 RATIO = 16.4273E+09 .
  
     ASYNCHRONOUS TRACKING ELEMENT LOOP STARTED
  

                   47 SEVERE DISCONTINUITIES OCCURRED DURING THIS ITERATION.
                   17 POINTS CHANGED FROM OPEN TO CLOSED
                   28 POINTS CHANGED FROM CLOSED TO OPEN
                    2 POINTS CHANGED FROM STICKING TO SLIPPING

               CONVERGENCE CHECKS FOR SEVERE DISCONTINUITY ITERATION    14

   MAX. PENETRATION ERROR 89.6827E-06  AT NODE BATTERY-1.3736 OF CONTACT PAIR 
   (ASSEMBLY_BATTERY-1_BATTOP,ASSEMBLY_CF-2_CFBOT)
   MAX. CONTACT FORCE ERROR -462.094E-03   AT NODE BATTERY-1.3680 OF CONTACT 
   PAIR (ASSEMBLY_BATTERY-1_BATTOP,ASSEMBLY_CF-2_CFBOT)
          THE ESTIMATED CONTACT FORCE ERROR IS OUTSIDE OF CONVERGENCE TOLERANCES.

 AVERAGE FORCE                      0.203       TIME AVG. FORCE       0.203    
 LARGEST RESIDUAL FORCE             0.335       AT NODE        275   DOF  3
   INSTANCE: CF-2                                                                            
 LARGEST INCREMENT OF DISP.         0.752       AT NODE          7   DOF  1
   INSTANCE: CF-1                                                                            
 LARGEST CORRECTION TO DISP.        1.421E-02   AT NODE         92   DOF  2
   INSTANCE: CF-1                                                                            
          FORCE     EQUILIBRIUM NOT ACHIEVED WITHIN TOLERANCE.

 AVERAGE MOMENT                     0.133       TIME AVG. MOMENT      0.133    
 LARGEST RESIDUAL MOMENT           -8.613E-03   AT NODE          1   DOF  4
   INSTANCE:                                                                                 
 LARGEST INCREMENT OF ROTATION      8.314E-03   AT NODE        572   DOF  5
   INSTANCE: CF-2                                                                            
 LARGEST CORRECTION TO ROTATION     4.654E-04   AT NODE        311   DOF  5
   INSTANCE: CF-2                                                                            
          MOMENT    EQUILIBRIUM NOT ACHIEVED WITHIN TOLERANCE.

  NUMBER OF EQUATIONS =     30777     NUMBER OF RHS =    1
  NUMBER OF FLOATING PT. OPERATIONS =  7.51E+10

  USING THE DIRECT SOLVER WITH   6 PROCESSORS

     CHECK POINT   START OF SOLVER    

     CHECK POINT  END OF SOLVER       

       ELAPSED USER TIME (SEC)      =   8.8000    
       ELAPSED SYSTEM TIME (SEC)    =  0.10000    
       ELAPSED TOTAL CPU TIME (SEC) =   8.9000    
       ELAPSED WALLCLOCK TIME (SEC) =          1
 

 ***WARNING: SOLVER PROBLEM. NUMERICAL SINGULARITY WHEN PROCESSING NODE 
             ASSEMBLY.1 D.O.F. 6 RATIO = 16.7068E+09 .
  
     ASYNCHRONOUS TRACKING ELEMENT LOOP STARTED
  

                   38 SEVERE DISCONTINUITIES OCCURRED DURING THIS ITERATION.
                   13 POINTS CHANGED FROM OPEN TO CLOSED
                   22 POINTS CHANGED FROM CLOSED TO OPEN
                    3 POINTS CHANGED FROM STICKING TO SLIPPING

               CONVERGENCE CHECKS FOR SEVERE DISCONTINUITY ITERATION    15

   MAX. PENETRATION ERROR 84.0223E-06  AT NODE BATTERY-1.1056 OF CONTACT PAIR 
   (ASSEMBLY_BATTERY-1_BATBOT,ASSEMBLY_CF-1_CFTOP)
   MAX. CONTACT FORCE ERROR -181.698E-03   AT NODE BATTERY-1.3708 OF CONTACT 
   PAIR (ASSEMBLY_BATTERY-1_BATTOP,ASSEMBLY_CF-2_CFBOT)
          THE CONTACT CONSTRAINT ERRORS ARE WITHIN THE TOLERANCES.

 AVERAGE FORCE                      0.203       TIME AVG. FORCE       0.203    
 LARGEST RESIDUAL FORCE            -0.100       AT NODE       3708   DOF  3
   INSTANCE: BATTERY-1                                                                       
 LARGEST INCREMENT OF DISP.         0.775       AT NODE          7   DOF  1
   INSTANCE: CF-1                                                                            
 LARGEST CORRECTION TO DISP.        2.251E-02   AT NODE          4   DOF  1
   INSTANCE: CF-2                                                                            
          FORCE     EQUILIBRIUM NOT ACHIEVED WITHIN TOLERANCE.

 AVERAGE MOMENT                     0.133       TIME AVG. MOMENT      0.133    
 LARGEST RESIDUAL MOMENT           -1.975E-03   AT NODE          1   DOF  4
   INSTANCE:                                                                                 
 LARGEST INCREMENT OF ROTATION      8.317E-03   AT NODE        572   DOF  5
   INSTANCE: CF-2                                                                            
 LARGEST CORRECTION TO ROTATION     3.303E-04   AT NODE        275   DOF  5
   INSTANCE: CF-2                                                                            
          MOMENT    EQUILIBRIUM NOT ACHIEVED WITHIN TOLERANCE.

  NUMBER OF EQUATIONS =     30777     NUMBER OF RHS =    1
  NUMBER OF FLOATING PT. OPERATIONS =  7.46E+10

  USING THE DIRECT SOLVER WITH   6 PROCESSORS

     CHECK POINT   START OF SOLVER    

     CHECK POINT  END OF SOLVER       

       ELAPSED USER TIME (SEC)      =   8.7000    
       ELAPSED SYSTEM TIME (SEC)    =  0.10000    
       ELAPSED TOTAL CPU TIME (SEC) =   8.8000    
       ELAPSED WALLCLOCK TIME (SEC) =          2
 

 ***WARNING: SOLVER PROBLEM. NUMERICAL SINGULARITY WHEN PROCESSING NODE 
             ASSEMBLY.1 D.O.F. 6 RATIO = 16.8499E+09 .
  
     ASYNCHRONOUS TRACKING ELEMENT LOOP STARTED
  

                   15 SEVERE DISCONTINUITIES OCCURRED DURING THIS ITERATION.
                    3 POINTS CHANGED FROM OPEN TO CLOSED
                   12 POINTS CHANGED FROM CLOSED TO OPEN

               CONVERGENCE CHECKS FOR SEVERE DISCONTINUITY ITERATION    16

   MAX. PENETRATION ERROR 12.8155E-06  AT NODE BATTERY-1.939 OF CONTACT PAIR 
   (ASSEMBLY_BATTERY-1_BATBOT,ASSEMBLY_CF-1_CFTOP)
   MAX. CONTACT FORCE ERROR -51.4852E-03  AT NODE BATTERY-1.1085 OF CONTACT 
   PAIR (ASSEMBLY_BATTERY-1_BATBOT,ASSEMBLY_CF-1_CFTOP)
          THE CONTACT CONSTRAINT ERRORS ARE WITHIN THE TOLERANCES.

 AVERAGE FORCE                      0.203       TIME AVG. FORCE       0.203    
 LARGEST RESIDUAL FORCE             2.913E-02   AT NODE       1085   DOF  3
   INSTANCE: BATTERY-1                                                                       
 LARGEST INCREMENT OF DISP.         0.756       AT NODE          7   DOF  1
   INSTANCE: CF-1                                                                            
 LARGEST CORRECTION TO DISP.        1.881E-02   AT NODE         91   DOF  2
   INSTANCE: CF-1                                                                            
          FORCE     EQUILIBRIUM NOT ACHIEVED WITHIN TOLERANCE.

 AVERAGE MOMENT                     0.133       TIME AVG. MOMENT      0.133    
 LARGEST RESIDUAL MOMENT            9.895E-04   AT NODE          1   DOF  5
   INSTANCE:                                                                                 
 LARGEST INCREMENT OF ROTATION      8.318E-03   AT NODE        572   DOF  5
   INSTANCE: CF-2                                                                            
 LARGEST CORRECTION TO ROTATION    -1.710E-04   AT NODE        273   DOF  6
   INSTANCE: CF-2                                                                            
          MOMENT    EQUILIBRIUM NOT ACHIEVED WITHIN TOLERANCE.

  NUMBER OF EQUATIONS =     30777     NUMBER OF RHS =    1
  NUMBER OF FLOATING PT. OPERATIONS =  7.46E+10

  USING THE DIRECT SOLVER WITH   6 PROCESSORS

     CHECK POINT   START OF SOLVER    

     CHECK POINT  END OF SOLVER       

       ELAPSED USER TIME (SEC)      =   8.7000    
       ELAPSED SYSTEM TIME (SEC)    =   0.0000    
       ELAPSED TOTAL CPU TIME (SEC) =   8.7000    
       ELAPSED WALLCLOCK TIME (SEC) =          1
 

 ***WARNING: SOLVER PROBLEM. NUMERICAL SINGULARITY WHEN PROCESSING NODE 
             ASSEMBLY.1 D.O.F. 6 RATIO = 16.8796E+09 .
  
     ASYNCHRONOUS TRACKING ELEMENT LOOP STARTED
  

                    4 SEVERE DISCONTINUITIES OCCURRED DURING THIS ITERATION.
                    4 POINTS CHANGED FROM CLOSED TO OPEN

               CONVERGENCE CHECKS FOR SEVERE DISCONTINUITY ITERATION    17

   MAX. PENETRATION ERROR -167.863E-12   AT NODE BATTERY-1.1056 OF CONTACT PAIR 
   (ASSEMBLY_BATTERY-1_BATBOT,ASSEMBLY_CF-1_CFTOP)
   MAX. CONTACT FORCE ERROR -38.6150E-03  AT NODE BATTERY-1.1110 OF CONTACT 
   PAIR (ASSEMBLY_BATTERY-1_BATBOT,ASSEMBLY_CF-1_CFTOP)
          THE CONTACT CONSTRAINT ERRORS ARE WITHIN THE TOLERANCES.

 AVERAGE FORCE                      0.203       TIME AVG. FORCE       0.203    
 LARGEST RESIDUAL FORCE             2.236E-02   AT NODE       1110   DOF  3
   INSTANCE: BATTERY-1                                                                       
 LARGEST INCREMENT OF DISP.         0.772       AT NODE          7   DOF  1
   INSTANCE: CF-1                                                                            
 LARGEST CORRECTION TO DISP.        1.603E-02   AT NODE        101   DOF  1
   INSTANCE: CF-1                                                                            
          FORCE     EQUILIBRIUM NOT ACHIEVED WITHIN TOLERANCE.

 AVERAGE MOMENT                     0.133       TIME AVG. MOMENT      0.133    
 LARGEST RESIDUAL MOMENT           -8.569E-05   AT NODE          1   DOF  6
   INSTANCE:                                                                                 
 LARGEST INCREMENT OF ROTATION      8.318E-03   AT NODE        572   DOF  5
   INSTANCE: CF-2                                                                            
 LARGEST CORRECTION TO ROTATION     1.458E-04   AT NODE        419   DOF  6
   INSTANCE: CF-1                                                                            
 ESTIMATE OF ROTATION CORRECTION   -1.263E-05
 MOMENT    EQUILIB. ACCEPTED BASED ON SMALL RESIDUAL AND ESTIMATED CORRECTION

  NUMBER OF EQUATIONS =     30777     NUMBER OF RHS =    1
  NUMBER OF FLOATING PT. OPERATIONS =  7.42E+10

  USING THE DIRECT SOLVER WITH   6 PROCESSORS

     CHECK POINT   START OF SOLVER    

     CHECK POINT  END OF SOLVER       

       ELAPSED USER TIME (SEC)      =   8.9000    
       ELAPSED SYSTEM TIME (SEC)    =   0.0000    
       ELAPSED TOTAL CPU TIME (SEC) =   8.9000    
       ELAPSED WALLCLOCK TIME (SEC) =          1
 

 ***WARNING: SOLVER PROBLEM. NUMERICAL SINGULARITY WHEN PROCESSING NODE 
             ASSEMBLY.1 D.O.F. 6 RATIO = 16.8924E+09 .
  
     ASYNCHRONOUS TRACKING ELEMENT LOOP STARTED
  

                    3 SEVERE DISCONTINUITIES OCCURRED DURING THIS ITERATION.
                    3 POINTS CHANGED FROM CLOSED TO OPEN

               CONVERGENCE CHECKS FOR SEVERE DISCONTINUITY ITERATION    18

   MAX. PENETRATION ERROR -40.7827E-12  AT NODE BATTERY-1.3662 OF CONTACT PAIR 
   (ASSEMBLY_BATTERY-1_BATTOP,ASSEMBLY_CF-2_CFBOT)
   MAX. CONTACT FORCE ERROR -29.1748E-03  AT NODE BATTERY-1.1056 OF CONTACT 
   PAIR (ASSEMBLY_BATTERY-1_BATBOT,ASSEMBLY_CF-1_CFTOP)
          THE CONTACT CONSTRAINT ERRORS ARE WITHIN THE TOLERANCES.

 AVERAGE FORCE                      0.203       TIME AVG. FORCE       0.203    
 LARGEST RESIDUAL FORCE             1.648E-02   AT NODE       1056   DOF  3
   INSTANCE: BATTERY-1                                                                       
 LARGEST INCREMENT OF DISP.         0.757       AT NODE          7   DOF  1
   INSTANCE: CF-1                                                                            
 LARGEST CORRECTION TO DISP.       -1.470E-02   AT NODE          1   DOF  1
   INSTANCE: CF-1                                                                            
          FORCE     EQUILIBRIUM NOT ACHIEVED WITHIN TOLERANCE.

 AVERAGE MOMENT                     0.133       TIME AVG. MOMENT      0.133    
 LARGEST RESIDUAL MOMENT            8.269E-05   AT NODE          1   DOF  6
   INSTANCE:                                                                                 
 LARGEST INCREMENT OF ROTATION      8.318E-03   AT NODE        572   DOF  5
   INSTANCE: CF-2                                                                            
 LARGEST CORRECTION TO ROTATION    -1.337E-04   AT NODE        420   DOF  6
   INSTANCE: CF-1                                                                            
          ROTATION CORRECTION TOO LARGE COMPARED TO ROTATION INCREMENT

  NUMBER OF EQUATIONS =     30777     NUMBER OF RHS =    1
  NUMBER OF FLOATING PT. OPERATIONS =  7.42E+10

  USING THE DIRECT SOLVER WITH   6 PROCESSORS

     CHECK POINT   START OF SOLVER    

     CHECK POINT  END OF SOLVER       

       ELAPSED USER TIME (SEC)      =   8.6000    
       ELAPSED SYSTEM TIME (SEC)    =   0.0000    
       ELAPSED TOTAL CPU TIME (SEC) =   8.6000    
       ELAPSED WALLCLOCK TIME (SEC) =          2
 

 ***WARNING: SOLVER PROBLEM. NUMERICAL SINGULARITY WHEN PROCESSING NODE 
             ASSEMBLY.1 D.O.F. 6 RATIO = 16.8911E+09 .
  
     ASYNCHRONOUS TRACKING ELEMENT LOOP STARTED
  

                    2 SEVERE DISCONTINUITIES OCCURRED DURING THIS ITERATION.
                    1 POINTS CHANGED FROM OPEN TO CLOSED
                    1 POINTS CHANGED FROM CLOSED TO OPEN

               CONVERGENCE CHECKS FOR SEVERE DISCONTINUITY ITERATION    19

   MAX. PENETRATION ERROR 501.347E-09   AT NODE BATTERY-1.3882 OF CONTACT PAIR 
   (ASSEMBLY_BATTERY-1_BATTOP,ASSEMBLY_CF-2_CFBOT)
   MAX. CONTACT FORCE ERROR -12.8261E-03  AT NODE BATTERY-1.1292 OF CONTACT 
   PAIR (ASSEMBLY_BATTERY-1_BATBOT,ASSEMBLY_CF-1_CFTOP)
          THE CONTACT CONSTRAINT ERRORS ARE WITHIN THE TOLERANCES.

 AVERAGE FORCE                      0.203       TIME AVG. FORCE       0.203    
 LARGEST RESIDUAL FORCE             7.162E-03   AT NODE       1292   DOF  3
   INSTANCE: BATTERY-1                                                                       
 LARGEST INCREMENT OF DISP.         0.771       AT NODE          7   DOF  1
   INSTANCE: CF-1                                                                            
 LARGEST CORRECTION TO DISP.        1.329E-02   AT NODE        169   DOF  1
   INSTANCE: CF-1                                                                            
          FORCE     EQUILIBRIUM NOT ACHIEVED WITHIN TOLERANCE.

 AVERAGE MOMENT                     0.133       TIME AVG. MOMENT      0.133    
 LARGEST RESIDUAL MOMENT           -7.139E-05   AT NODE          1   DOF  6
   INSTANCE:                                                                                 
 LARGEST INCREMENT OF ROTATION      8.318E-03   AT NODE        572   DOF  5
   INSTANCE: CF-2                                                                            
 LARGEST CORRECTION TO ROTATION     1.209E-04   AT NODE        274   DOF  6
   INSTANCE: CF-1                                                                            
          ROTATION CORRECTION TOO LARGE COMPARED TO ROTATION INCREMENT

  NUMBER OF EQUATIONS =     30777     NUMBER OF RHS =    1
  NUMBER OF FLOATING PT. OPERATIONS =  7.42E+10

  USING THE DIRECT SOLVER WITH   6 PROCESSORS

     CHECK POINT   START OF SOLVER    

     CHECK POINT  END OF SOLVER       

       ELAPSED USER TIME (SEC)      =   8.8000    
       ELAPSED SYSTEM TIME (SEC)    =   0.0000    
       ELAPSED TOTAL CPU TIME (SEC) =   8.8000    
       ELAPSED WALLCLOCK TIME (SEC) =          1
 

 ***WARNING: SOLVER PROBLEM. NUMERICAL SINGULARITY WHEN PROCESSING NODE 
             ASSEMBLY.1 D.O.F. 6 RATIO = 16.8999E+09 .
  
     ASYNCHRONOUS TRACKING ELEMENT LOOP STARTED
  

                    1 SEVERE DISCONTINUITIES OCCURRED DURING THIS ITERATION.
                    1 POINTS CHANGED FROM OPEN TO CLOSED

               CONVERGENCE CHECKS FOR SEVERE DISCONTINUITY ITERATION    20

   MAX. PENETRATION ERROR 899.544E-09   AT NODE BATTERY-1.938 OF CONTACT PAIR 
   (ASSEMBLY_BATTERY-1_BATBOT,ASSEMBLY_CF-1_CFTOP)
   MAX. CONTACT FORCE ERROR 1.48380E-03 AT NODE BATTERY-1.938 OF CONTACT PAIR 
   (ASSEMBLY_BATTERY-1_BATBOT,ASSEMBLY_CF-1_CFTOP)
          THE CONTACT CONSTRAINT ERRORS ARE WITHIN THE TOLERANCES.

 AVERAGE FORCE                      0.203       TIME AVG. FORCE       0.203    
 LARGEST RESIDUAL FORCE             9.167E-06   AT NODE          1   DOF  2
   INSTANCE:                                                                                 
 LARGEST INCREMENT OF DISP.         0.758       AT NODE          7   DOF  1
   INSTANCE: CF-1                                                                            
 LARGEST CORRECTION TO DISP.       -1.226E-02   AT NODE          5   DOF  1
   INSTANCE: CF-1                                                                            
          DISP.    CORRECTION TOO LARGE COMPARED TO DISP.    INCREMENT

 AVERAGE MOMENT                     0.133       TIME AVG. MOMENT      0.133    
 LARGEST RESIDUAL MOMENT            6.842E-05   AT NODE          1   DOF  6
   INSTANCE:                                                                                 
 LARGEST INCREMENT OF ROTATION      8.318E-03   AT NODE        572   DOF  5
   INSTANCE: CF-2                                                                            
 LARGEST CORRECTION TO ROTATION    -1.115E-04   AT NODE        275   DOF  6
   INSTANCE: CF-1                                                                            
          ROTATION CORRECTION TOO LARGE COMPARED TO ROTATION INCREMENT

  NUMBER OF EQUATIONS =     30777     NUMBER OF RHS =    1
  NUMBER OF FLOATING PT. OPERATIONS =  7.42E+10

  USING THE DIRECT SOLVER WITH   6 PROCESSORS

     CHECK POINT   START OF SOLVER    

     CHECK POINT  END OF SOLVER       

       ELAPSED USER TIME (SEC)      =   8.7000    
       ELAPSED SYSTEM TIME (SEC)    =   0.0000    
       ELAPSED TOTAL CPU TIME (SEC) =   8.7000    
       ELAPSED WALLCLOCK TIME (SEC) =          2
 

 ***WARNING: SOLVER PROBLEM. NUMERICAL SINGULARITY WHEN PROCESSING NODE 
             ASSEMBLY.1 D.O.F. 6 RATIO = 16.9014E+09 .
  
     ASYNCHRONOUS TRACKING ELEMENT LOOP STARTED
  

               CONVERGENCE CHECKS FOR EQUILIBRIUM ITERATION     1

   MAX. PENETRATION ERROR 6.67129E-12 AT NODE BATTERY-1.236 OF CONTACT PAIR 
   (ASSEMBLY_BATTERY-1_BATBOT,ASSEMBLY_CF-1_CFTOP)
   MAX. CONTACT FORCE ERROR 9.30692E-09 AT NODE BATTERY-1.236 OF CONTACT PAIR 
   (ASSEMBLY_BATTERY-1_BATBOT,ASSEMBLY_CF-1_CFTOP)
          THE CONTACT CONSTRAINTS HAVE CONVERGED.

 AVERAGE FORCE                      0.203       TIME AVG. FORCE       0.203    
 LARGEST RESIDUAL FORCE            -8.519E-06   AT NODE          1   DOF  2
   INSTANCE:                                                                                 
 LARGEST INCREMENT OF DISP.         0.770       AT NODE          7   DOF  1
   INSTANCE: CF-1                                                                            
 LARGEST CORRECTION TO DISP.        1.131E-02   AT NODE        168   DOF  1
   INSTANCE: CF-1                                                                            
 ESTIMATE OF DISP.    CORRECTION   -6.493E-05
 FORCE     EQUILIB. ACCEPTED BASED ON SMALL RESIDUAL AND ESTIMATED CORRECTION

 AVERAGE MOMENT                     0.133       TIME AVG. MOMENT      0.133    
 LARGEST RESIDUAL MOMENT           -6.230E-05   AT NODE          1   DOF  6
   INSTANCE:                                                                                 
 LARGEST INCREMENT OF ROTATION      8.318E-03   AT NODE        572   DOF  5
   INSTANCE: CF-2                                                                            
 LARGEST CORRECTION TO ROTATION     1.028E-04   AT NODE        709   DOF  6
   INSTANCE: CF-1                                                                            
          ROTATION CORRECTION TOO LARGE COMPARED TO ROTATION INCREMENT

  NUMBER OF EQUATIONS =     30777     NUMBER OF RHS =    1
  NUMBER OF FLOATING PT. OPERATIONS =  7.42E+10

  USING THE DIRECT SOLVER WITH   6 PROCESSORS

     CHECK POINT   START OF SOLVER    

     CHECK POINT  END OF SOLVER       

       ELAPSED USER TIME (SEC)      =   8.9000    
       ELAPSED SYSTEM TIME (SEC)    =   0.0000    
       ELAPSED TOTAL CPU TIME (SEC) =   8.9000    
       ELAPSED WALLCLOCK TIME (SEC) =          2
 

 ***WARNING: SOLVER PROBLEM. NUMERICAL SINGULARITY WHEN PROCESSING NODE 
             ASSEMBLY.1 D.O.F. 6 RATIO = 16.9011E+09 .
  
     ASYNCHRONOUS TRACKING ELEMENT LOOP STARTED
  

               CONVERGENCE CHECKS FOR EQUILIBRIUM ITERATION     2

   MAX. PENETRATION ERROR -7.47554E-12 AT NODE BATTERY-1.236 OF CONTACT PAIR 
   (ASSEMBLY_BATTERY-1_BATBOT,ASSEMBLY_CF-1_CFTOP)
   MAX. CONTACT FORCE ERROR -10.4289E-09  AT NODE BATTERY-1.236 OF CONTACT PAIR 
   (ASSEMBLY_BATTERY-1_BATBOT,ASSEMBLY_CF-1_CFTOP)
          THE CONTACT CONSTRAINTS HAVE CONVERGED.

 AVERAGE FORCE                      0.203       TIME AVG. FORCE       0.203    
 LARGEST RESIDUAL FORCE             7.836E-06   AT NODE          1   DOF  2
   INSTANCE:                                                                                 
 LARGEST INCREMENT OF DISP.         0.759       AT NODE          7   DOF  1
   INSTANCE: CF-1                                                                            
 LARGEST CORRECTION TO DISP.       -1.040E-02   AT NODE        168   DOF  1
   INSTANCE: CF-1                                                                            
          DISP.    CORRECTION TOO LARGE COMPARED TO DISP.    INCREMENT

 AVERAGE MOMENT                     0.133       TIME AVG. MOMENT      0.133    
 LARGEST RESIDUAL MOMENT            5.739E-05   AT NODE          1   DOF  6
   INSTANCE:                                                                                 
 LARGEST INCREMENT OF ROTATION      8.318E-03   AT NODE        572   DOF  5
   INSTANCE: CF-2                                                                            
 LARGEST CORRECTION TO ROTATION    -9.458E-05   AT NODE        709   DOF  6
   INSTANCE: CF-1                                                                            
          ROTATION CORRECTION TOO LARGE COMPARED TO ROTATION INCREMENT

  NUMBER OF EQUATIONS =     30777     NUMBER OF RHS =    1
  NUMBER OF FLOATING PT. OPERATIONS =  7.42E+10

  USING THE DIRECT SOLVER WITH   6 PROCESSORS

     CHECK POINT   START OF SOLVER    

     CHECK POINT  END OF SOLVER       

       ELAPSED USER TIME (SEC)      =   9.5000    
       ELAPSED SYSTEM TIME (SEC)    =   0.0000    
       ELAPSED TOTAL CPU TIME (SEC) =   9.5000    
       ELAPSED WALLCLOCK TIME (SEC) =          1
 

 ***WARNING: SOLVER PROBLEM. NUMERICAL SINGULARITY WHEN PROCESSING NODE 
             ASSEMBLY.1 D.O.F. 6 RATIO = 16.9024E+09 .
  
     ASYNCHRONOUS TRACKING ELEMENT LOOP STARTED
  

               CONVERGENCE CHECKS FOR EQUILIBRIUM ITERATION     3

   MAX. PENETRATION ERROR 5.74250E-12 AT NODE BATTERY-1.236 OF CONTACT PAIR 
   (ASSEMBLY_BATTERY-1_BATBOT,ASSEMBLY_CF-1_CFTOP)
   MAX. CONTACT FORCE ERROR 8.01119E-09 AT NODE BATTERY-1.236 OF CONTACT PAIR 
   (ASSEMBLY_BATTERY-1_BATBOT,ASSEMBLY_CF-1_CFTOP)
          THE CONTACT CONSTRAINTS HAVE CONVERGED.

 AVERAGE FORCE                      0.203       TIME AVG. FORCE       0.203    
 LARGEST RESIDUAL FORCE            -7.207E-06   AT NODE          1   DOF  2
   INSTANCE:                                                                                 
 LARGEST INCREMENT OF DISP.         0.769       AT NODE          7   DOF  1
   INSTANCE: CF-1                                                                            
 LARGEST CORRECTION TO DISP.        9.569E-03   AT NODE        168   DOF  1
   INSTANCE: CF-1                                                                            
          DISP.    CORRECTION TOO LARGE COMPARED TO DISP.    INCREMENT

 AVERAGE MOMENT                     0.133       TIME AVG. MOMENT      0.133    
 LARGEST RESIDUAL MOMENT           -5.270E-05   AT NODE          1   DOF  6
   INSTANCE:                                                                                 
 LARGEST INCREMENT OF ROTATION      8.318E-03   AT NODE        572   DOF  5
   INSTANCE: CF-2                                                                            
 LARGEST CORRECTION TO ROTATION     8.699E-05   AT NODE        709   DOF  6
   INSTANCE: CF-1                                                                            
 ESTIMATE OF ROTATION CORRECTION   -7.987E-05
 MOMENT    EQUILIB. ACCEPTED BASED ON SMALL RESIDUAL AND ESTIMATED CORRECTION

  NUMBER OF EQUATIONS =     30777     NUMBER OF RHS =    1
  NUMBER OF FLOATING PT. OPERATIONS =  7.42E+10

  USING THE DIRECT SOLVER WITH   6 PROCESSORS

     CHECK POINT   START OF SOLVER    

     CHECK POINT  END OF SOLVER       

       ELAPSED USER TIME (SEC)      =   8.8000    
       ELAPSED SYSTEM TIME (SEC)    =  0.10000    
       ELAPSED TOTAL CPU TIME (SEC) =   8.9000    
       ELAPSED WALLCLOCK TIME (SEC) =          2
 

 ***WARNING: SOLVER PROBLEM. NUMERICAL SINGULARITY WHEN PROCESSING NODE 
             ASSEMBLY.1 D.O.F. 6 RATIO = 16.9032E+09 .
  
     ASYNCHRONOUS TRACKING ELEMENT LOOP STARTED
  

               CONVERGENCE CHECKS FOR EQUILIBRIUM ITERATION     4

   MAX. PENETRATION ERROR -6.24151E-12 AT NODE BATTERY-1.236 OF CONTACT PAIR 
   (ASSEMBLY_BATTERY-1_BATBOT,ASSEMBLY_CF-1_CFTOP)
   MAX. CONTACT FORCE ERROR -8.70733E-09 AT NODE BATTERY-1.236 OF CONTACT PAIR 
   (ASSEMBLY_BATTERY-1_BATBOT,ASSEMBLY_CF-1_CFTOP)
          THE CONTACT CONSTRAINTS HAVE CONVERGED.

 AVERAGE FORCE                      0.203       TIME AVG. FORCE       0.203    
 LARGEST RESIDUAL FORCE             6.630E-06   AT NODE          1   DOF  2
   INSTANCE:                                                                                 
 LARGEST INCREMENT OF DISP.         0.760       AT NODE          7   DOF  1
   INSTANCE: CF-1                                                                            
 LARGEST CORRECTION TO DISP.       -8.802E-03   AT NODE        168   DOF  1
   INSTANCE: CF-1                                                                            
          DISP.    CORRECTION TOO LARGE COMPARED TO DISP.    INCREMENT

 AVERAGE MOMENT                     0.133       TIME AVG. MOMENT      0.133    
 LARGEST RESIDUAL MOMENT            4.855E-05   AT NODE          1   DOF  6
   INSTANCE:                                                                                 
 LARGEST INCREMENT OF ROTATION      8.318E-03   AT NODE        572   DOF  5
   INSTANCE: CF-2                                                                            
 LARGEST CORRECTION TO ROTATION    -8.002E-05   AT NODE        709   DOF  6
   INSTANCE: CF-1                                                                            
          THE MOMENT    EQUILIBRIUM EQUATIONS HAVE CONVERGED

  NUMBER OF EQUATIONS =     30777     NUMBER OF RHS =    1
  NUMBER OF FLOATING PT. OPERATIONS =  7.42E+10

  USING THE DIRECT SOLVER WITH   6 PROCESSORS

     CHECK POINT   START OF SOLVER    

     CHECK POINT  END OF SOLVER       

       ELAPSED USER TIME (SEC)      =   8.6000    
       ELAPSED SYSTEM TIME (SEC)    =  0.10000    
       ELAPSED TOTAL CPU TIME (SEC) =   8.7000    
       ELAPSED WALLCLOCK TIME (SEC) =          1
 

 ***WARNING: SOLVER PROBLEM. NUMERICAL SINGULARITY WHEN PROCESSING NODE 
             ASSEMBLY.1 D.O.F. 6 RATIO = 16.9029E+09 .
  
     ASYNCHRONOUS TRACKING ELEMENT LOOP STARTED
  

               CONVERGENCE CHECKS FOR EQUILIBRIUM ITERATION     5

   MAX. PENETRATION ERROR 4.93012E-12 AT NODE BATTERY-1.236 OF CONTACT PAIR 
   (ASSEMBLY_BATTERY-1_BATBOT,ASSEMBLY_CF-1_CFTOP)
   MAX. CONTACT FORCE ERROR 6.87786E-09 AT NODE BATTERY-1.236 OF CONTACT PAIR 
   (ASSEMBLY_BATTERY-1_BATBOT,ASSEMBLY_CF-1_CFTOP)
          THE CONTACT CONSTRAINTS HAVE CONVERGED.

 AVERAGE FORCE                      0.203       TIME AVG. FORCE       0.203    
 LARGEST RESIDUAL FORCE            -6.099E-06   AT NODE          1   DOF  2
   INSTANCE:                                                                                 
 LARGEST INCREMENT OF DISP.         0.768       AT NODE          7   DOF  1
   INSTANCE: CF-1                                                                            
 LARGEST CORRECTION TO DISP.        8.097E-03   AT NODE        168   DOF  1
   INSTANCE: CF-1                                                                            
 ESTIMATE OF DISP.    CORRECTION   -7.449E-03
 FORCE     EQUILIB. ACCEPTED BASED ON SMALL RESIDUAL AND ESTIMATED CORRECTION

 AVERAGE MOMENT                     0.133       TIME AVG. MOMENT      0.133    
 LARGEST RESIDUAL MOMENT           -4.460E-05   AT NODE          1   DOF  6
   INSTANCE:                                                                                 
 LARGEST INCREMENT OF ROTATION      8.318E-03   AT NODE        572   DOF  5
   INSTANCE: CF-2                                                                            
 LARGEST CORRECTION TO ROTATION     7.361E-05   AT NODE        709   DOF  6
   INSTANCE: CF-1                                                                            
          THE MOMENT    EQUILIBRIUM EQUATIONS HAVE CONVERGED

 ITERATION SUMMARY FOR THE INCREMENT:  25 TOTAL ITERATIONS, OF WHICH
  20 ARE SEVERE DISCONTINUITY ITERATIONS AND  5 ARE EQUILIBRIUM ITERATIONS.

 TIME INCREMENT COMPLETED   1.00    ,  FRACTION OF STEP COMPLETED   1.00    
 STEP TIME COMPLETED        1.00    ,  TOTAL TIME COMPLETED         1.00    


          THE ANALYSIS HAS BEEN COMPLETED



     ANALYSIS SUMMARY:
     TOTAL OF          1  INCREMENTS
                       0  CUTBACKS IN AUTOMATIC INCREMENTATION
                      25  ITERATIONS INCLUDING CONTACT ITERATIONS IF PRESENT
                      25  PASSES THROUGH THE EQUATION SOLVER OF WHICH 
                      25  INVOLVE MATRIX DECOMPOSITION, INCLUDING
                       0  DECOMPOSITION(S) OF THE MASS MATRIX
                       1  REORDERING OF EQUATIONS TO MINIMIZE WAVEFRONT
                       0  ADDITIONAL RESIDUAL EVALUATIONS FOR LINE SEARCHES
                       0  ADDITIONAL OPERATOR EVALUATIONS FOR LINE SEARCHES
                       0  WARNING MESSAGES DURING USER INPUT PROCESSING
                      25  WARNING MESSAGES DURING ANALYSIS
                      25  ANALYSIS WARNINGS ARE NUMERICAL PROBLEM MESSAGES
                       0  ANALYSIS WARNINGS ARE NEGATIVE EIGENVALUE MESSAGES
                       0  ERROR MESSAGES



     JOB TIME SUMMARY
       USER TIME (SEC)      =   331.50    
       SYSTEM TIME (SEC)    =   6.6000    
       TOTAL CPU TIME (SEC) =   338.10    
       WALLCLOCK TIME (SEC) =         71
