 Abaqus/Standard 3DEXPERIENCE R2019x                  DATE 27-May-2019 TIME 19:27:01
 SUMMARY OF JOB INFORMATION:
 STEP  INC ATT SEVERE EQUIL TOTAL  TOTAL      STEP       INC OF       DOF    IF
               DISCON ITERS ITERS  TIME/    TIME/LPF    TIME/LPF    MONITOR RIKS
               ITERS               FREQ
   1     1   1U   15    16    31  0.000      0.000      1.000     
   1     1   2U   16    16    32  0.000      0.000      0.2500    
   1     1   3U    5     1     6  0.000      0.000      0.06250   
   1     1   4    14     1    15  0.0156     0.0156     0.01563   
   1     2   1U    3     4     7  0.0156     0.0156     0.01563   
   1     2   2U    2     4     6  0.0156     0.0156     0.003906  
   1     2   3U    2     4     6  0.0156     0.0156     0.0009766 
   1     2   4U    2     6     8  0.0156     0.0156     0.0002441 
   1     2   5U    1     4     5  0.0156     0.0156     6.104e-05 
                          
 THE ANALYSIS HAS NOT BEEN COMPLETED
