*Heading
** Job name: Job-1 Model name: Model-1
** Generated by: Abaqus/CAE 2019
*Preprint, echo=NO, model=NO, history=NO, contact=NO
**
** PARTS
**
*Part, name=Battery
*Node
      1,   8.12132072,   86.1213226,           0.
      2,           6.,          87.,           0.
      3,   3.87867975,   86.1213226,           0.
      4,           3.,          84.,           0.
      5,   3.87867975,   81.8786774,           0.
      6,           6.,          81.,           0.
      7,   8.12132072,   81.8786774,           0.
      8,           9.,          84.,           0.
      9,   17.8965511,   48.0224419,           0.
     10,   16.2180862,   50.5344429,           0.
     11,   10.7429752,   52.8023071,           0.
     12,   7.77986717,   52.2129097,           0.
     13,   5.26786518,   50.5344429,           0.
     14,   3.58939886,   48.0224419,           0.
     15,   3.58939886,   42.0962257,           0.
     16,   5.26786518,   39.5842209,           0.
     17,   7.77986717,   37.9057579,           0.
     18,   10.7429752,   37.3163567,           0.
     19,   16.2180862,   39.5842209,           0.
     20,   17.8965511,   42.0962257,           0.
** ... 3670 like lines cut
*Element, type=C3D8R
   1,  104,  166,    2,  105, 1334, 1396, 1232, 1335
   2,   42,  103,  166,  104, 1272, 1333, 1396, 1334
   3, 1100,  166,  103,  102, 2330, 1396, 1333, 1332
   4,  545, 1103,  441, 1102, 1775, 2333, 1671, 2332
   5,   14,   90,   89,  162, 1244, 1320, 1319, 1392
   6,  276,  168,   27,   26, 1506, 1398, 1257, 1256
   7,  218,   82,   81,  217, 1448, 1312, 1311, 1447
   8,  216,   80,   79,  287, 1446, 1310, 1309, 1517
   9,   77,  182,  181,   78, 1307, 1412, 1411, 1308
  10,  522,  453,  410, 1163, 1752, 1683, 1640, 2393
  11,   76,  183,  182,   77, 1306, 1413, 1412, 1307
  12,  210,   67,   66,  209, 1440, 1297, 1296, 1439
  13,  197,  140,  139,  196, 1427, 1370, 1369, 1426
  14,  140,  197,  198,  141, 1370, 1427, 1428, 1371
  15,  305,  292,  185,  193, 1535, 1522, 1415, 1423
  16,  163,  699,  164,   22, 1393, 1929, 1394, 1252
  17,  273,  272,   20,   19, 1503, 1502, 1250, 1249
  18,   18,  165,  164,   45, 1248, 1395, 1394, 1275
  19,   17,  270,  165,   18, 1247, 1500, 1395, 1248
  20,  270,   24,   23,  165, 1500, 1254, 1253, 1395
** ... 2284 like lines cut
*Nset, nset=Batset, generate
    1,  3690,     1
*Elset, elset=Batset, generate
    1,  2304,     1
*Elset, elset=_BatTop_S2, internal, generate
 1153,  2304,     1
*Surface, type=ELEMENT, name=BatTop
_BatTop_S2, S2
*Elset, elset=_BatBot_S1, internal, generate
    1,  1152,     1
*Surface, type=ELEMENT, name=BatBot
_BatBot_S1, S1
*Elset, elset=_Battery-rivet-0_S5, internal
   27,   36,  103,  107,  154, 1179, 1188, 1255, 1259, 1306
*Elset, elset=_Battery-rivet-0_S3, internal
   38,  109, 1190, 1261
*Elset, elset=_Battery-rivet-0_S4, internal
  105,  156,  160, 1257, 1308, 1312
*Surface, type=ELEMENT, name=Battery-rivet-0
_Battery-rivet-0_S5, S5
_Battery-rivet-0_S3, S3
_Battery-rivet-0_S4, S4
*Elset, elset=_Battery-rivet-1_S5, internal
    6,   21, 1158, 1173
*Elset, elset=_Battery-rivet-1_S4, internal
   20,   77,  147, 1172, 1229, 1299
*Elset, elset=_Battery-rivet-1_S3, internal
   62,   68, 1214, 1220
*Elset, elset=_Battery-rivet-1_S6, internal
  140, 1292
*Surface, type=ELEMENT, name=Battery-rivet-1
_Battery-rivet-1_S5, S5
_Battery-rivet-1_S4, S4
_Battery-rivet-1_S6, S6
_Battery-rivet-1_S3, S3
*Elset, elset=_Battery-rivet-2_S6, internal
    5,   18,   19,   55,   84,  144,  171, 1157, 1170, 1171, 1207, 1236, 1296, 1323
*Elset, elset=_Battery-rivet-2_S5, internal
   17,   29,   37,   50,   82, 1169, 1181, 1189, 1202, 1234
*Elset, elset=_Battery-rivet-2_S3, internal
   85,   99, 1237, 1251
*Elset, elset=_Battery-rivet-2_S4, internal
  249,  252, 1401, 1404
*Surface, type=ELEMENT, name=Battery-rivet-2
_Battery-rivet-2_S6, S6
_Battery-rivet-2_S5, S5
_Battery-rivet-2_S4, S4
_Battery-rivet-2_S3, S3
*Elset, elset=_Battery-rivet-3_S4, internal
   24,   91,  141,  143, 1176, 1243, 1293, 1295
*Elset, elset=_Battery-rivet-3_S3, internal
   32,   33, 1184, 1185
*Elset, elset=_Battery-rivet-3_S6, internal
   92,   93, 1244, 1245
*Surface, type=ELEMENT, name=Battery-rivet-3
_Battery-rivet-3_S4, S4
_Battery-rivet-3_S3, S3
_Battery-rivet-3_S6, S6
*Orientation, name=Ori-1
1., 0., 0., 0., 1., 0.
3, 0.
** Section: BatOrtho
*Solid Section, elset=Batset, orientation=Ori-1, material=BatOrtho
,
*End Part
**  
*Part, name=CF
*Node
      1,         52.5,           0.,           0.
      2,         52.5,         110.,           0.
      3,           0.,         110.,           0.
      4,           0.,           0.,           0.
      5,         57.5,           0.,           0.
      6,         57.5,         110.,           0.
      7,         110.,           0.,           0.
      8,         110.,         110.,           0.
      9,         52.5,   2.97297287,           0.
     10,         52.5,   5.94594574,           0.
     11,         52.5,   8.91891861,           0.
     12,         52.5,   11.8918915,           0.
     13,         52.5,   14.8648653,           0.
     14,         52.5,   17.8378372,           0.
     15,         52.5,   20.8108101,           0.
     16,         52.5,    23.783783,           0.
     17,         52.5,   26.7567558,           0.
     18,         52.5,   29.7297306,           0.
     19,         52.5,   32.7027016,           0.
     20,         52.5,   35.6756744,           0.
** ... 1462 like lines cut
*Element, type=S4R
  1,   1,   9, 223, 114
  2,   9,  10, 224, 223
  3,  10,  11, 225, 224
  4,  11,  12, 226, 225
  5,  12,  13, 227, 226
  6,  13,  14, 228, 227
  7,  14,  15, 229, 228
  8,  15,  16, 230, 229
  9,  16,  17, 231, 230
 10,  17,  18, 232, 231
 11,  18,  19, 233, 232
 12,  19,  20, 234, 233
 13,  20,  21, 235, 234
 14,  21,  22, 236, 235
 15,  22,  23, 237, 236
 16,  23,  24, 238, 237
 17,  24,  25, 239, 238
 18,  25,  26, 240, 239
 19,  26,  27, 241, 240
 20,  27,  28, 242, 241
** ... 1386 like lines cut
*Nset, nset=CF_set, generate
    1,  1482,     1
*Elset, elset=CF_set, generate
    1,  1406,     1
*Elset, elset=_CFtop_SPOS, internal, generate
    1,  1406,     1
*Surface, type=ELEMENT, name=CFtop
_CFtop_SPOS, SPOS
*Elset, elset=_CFbot_SNEG, internal, generate
    1,  1406,     1
*Surface, type=ELEMENT, name=CFbot
_CFbot_SNEG, SNEG
** Section: CF_sec
*Shell Section, elset=CF_set, composite
0.2, 3, CF_material, 0.
0.2, 3, CF_material, 90.
0.2, 3, CF_material, 90.
0.2, 3, CF_material, 0.
*End Part
**  
*Part, name=Polymer
*Node
      1,   28.4859505,   55.0593338,           0.
      2,   28.4859505,   55.0593338,           5.
      3,   69.6053085,   92.5970535,           0.
      4,   69.6053085,   92.5970535,           5.
      5,          10.,         100.,           0.
      6,          10.,          10.,           0.
      7,         100.,          10.,           0.
      8,         100.,         100.,           0.
      9,         110.,           0.,           0.
     10,           0.,           0.,           0.
     11,           0.,         110.,           0.
     12,         110.,         110.,           0.
     13,          10.,          10.,           5.
     14,          10.,         100.,           5.
     15,         100.,         100.,           5.
     16,         100.,          10.,           5.
     17,           0.,         110.,           5.
     18,           0.,           0.,           5.
     19,         110.,           0.,           5.
     20,         110.,         110.,           5.
** ... 2200 like lines cut
*Element, type=C3D8R
 1,  683, 1810, 1802,  684,   38,  648,  640,   39
 2, 1805, 1792,  682,  681,  643,  630,   37,   36
 3, 1802, 1810, 1804, 1791,  640,  648,  642,  629
 4, 1808,  673,  672, 1797,  646,   28,   27,  635
 5, 1803, 1800, 1794, 1795,  641,  638,  632,  633
 6, 1796, 1808, 1803, 1795,  634,  646,  641,  633
 7, 1809,  671,  670, 1798,  647,   26,   25,  636
 8,  669, 1791, 1798,  670,    1,  629,  636,   25
 9, 1808, 1797, 1799, 1803,  646,  635,  637,  641
10, 1792, 1805, 1793, 1800,  630,  643,  631,  638
11,  677, 1795, 1794,  678,   32,  633,  632,   33
12, 1791,  669,  684, 1802,  629,    1,   39,  640
13,  680,  679, 1806, 1793,   35,   34,  644,  631
14, 1793, 1806, 1794, 1800,  631,  644,  632,  638
15, 1807, 1801,  676,  675,  645,  639,   31,   30
16, 1807,  675,  674, 1796,  645,   30,   29,  634
17, 1796,  674,  673, 1808,  634,   29,   28,  646
18,  672,  671, 1809, 1797,   27,   26,  647,  635
19, 1797, 1809, 1798, 1799,  635,  647,  636,  637
20, 1798, 1791, 1804, 1799,  636,  629,  642,  637
** ... 1142 like lines cut
*Nset, nset=PolySet
    5,    6,    7,    8,    9,   10,   11,   12,   13,   14,   15,   16,   17,   18,   19,   20
   73,   74,   75,   76,   77,   78,   79,   80,   81,   82,   83,   84,   85,   86,   87,   88
   89,   90,   91,   92,   93,   94,   95,   96,   97,   98,   99,  100,  101,  102,  103,  104
  105,  106,  107,  108,  109,  110,  111,  112,  113,  114,  115,  116,  117,  118,  119,  120
  121,  122,  123,  124,  125,  126,  127,  128,  129,  130,  131,  132,  133,  134,  135,  136
  137,  138,  139,  140,  141,  142,  143,  144,  145,  146,  147,  148,  149,  150,  151,  152
  153,  154,  155,  156,  157,  158,  159,  160,  161,  162,  163,  164,  165,  166,  167,  168
  169,  170,  171,  172,  173,  174,  175,  176,  177,  178,  179,  180,  181,  182,  183,  184
  185,  186,  187,  188,  189,  190,  191,  192,  193,  194,  195,  196,  197,  198,  199,  200
  201,  202,  203,  204,  205,  206,  207,  208,  209,  210,  211,  212,  213,  214,  215,  216
  217,  218,  219,  220,  221,  222,  223,  224,  225,  226,  227,  228,  229,  230,  231,  232
  233,  234,  235,  236,  237,  238,  239,  240,  241,  242,  243,  244,  245,  246,  247,  248
  249,  250,  251,  252,  253,  254,  255,  256,  257,  258,  259,  260,  261,  262,  263,  264
  265,  266,  267,  268,  269,  270,  271,  272,  273,  274,  275,  276,  277,  278,  279,  280
  281,  282,  283,  284,  285,  286,  287,  288,  289,  290,  291,  292,  293,  294,  295,  296
  297,  298,  299,  300,  301,  302,  303,  304,  305,  306,  307,  308,  309,  310,  311,  312
  313,  314,  315,  316,  317,  318,  319,  320,  321,  322,  323,  324,  325,  326,  327,  328
  329,  330,  331,  332,  333,  334,  335,  336,  337,  338,  339,  340,  341,  342,  343,  344
  345,  346,  347,  348,  349,  350,  351,  352,  353,  354,  355,  356,  357,  358,  359,  360
  361,  362,  363,  364,  365,  366,  367,  368,  369,  370,  371,  372,  373,  374,  375,  376
** ... 106 like lines cut
*Elset, elset=PolySet, generate
   75,  1146,     1
*Nset, nset=_PickedSet12, internal
    3,    4,   55,   56,   57,   58,   59,   60,   61,   62,   63,   64,   65,   66,   67,   68
   69,   70,   71,   72,  685,  686,  687,  688,  689,  690,  691,  692,  693,  694,  695,  696
  697,  698,  699,  700,  701,  702,  703,  704,  705,  706, 1811, 1812, 1813, 1814, 1815, 1816
*Elset, elset=_PickedSet12, internal, generate
 55,  74,   1
*Nset, nset=_PickedSet17, internal
   21,   22,  601,  602,  603,  604,  605,  606,  607,  608,  609,  610,  611,  612,  613,  614
 1771, 1772, 1773, 1774, 1775, 1776, 1777, 1778, 1779, 1780, 2219
*Elset, elset=_PickedSet17, internal, generate
 1147,  1154,     1
*Nset, nset=_PickedSet22, internal
    1,    2,   25,   26,   27,   28,   29,   30,   31,   32,   33,   34,   35,   36,   37,   38
   39,   40,   41,   42,   43,   44,   45,   46,   47,   48,   49,   50,   51,   52,   53,   54
  629,  630,  631,  632,  633,  634,  635,  636,  637,  638,  639,  640,  641,  642,  643,  644
  645,  646,  647,  648,  649,  650,  651,  652,  653,  654,  655,  656,  657,  658,  659,  660
  661,  662,  663,  664,  665,  666,  667,  668,  669,  670,  671,  672,  673,  674,  675,  676
  677,  678,  679,  680,  681,  682,  683,  684, 1791, 1792, 1793, 1794, 1795, 1796, 1797, 1798
 1799, 1800, 1801, 1802, 1803, 1804, 1805, 1806, 1807, 1808, 1809, 1810
*Elset, elset=_PickedSet22, internal, generate
  1,  54,   1
*Nset, nset=_PickedSet27, internal
   23,   24,  615,  616,  617,  618,  619,  620,  621,  622,  623,  624,  625,  626,  627,  628
 1781, 1782, 1783, 1784, 1785, 1786, 1787, 1788, 1789, 1790, 2220
*Elset, elset=_PickedSet27, internal, generate
 1155,  1162,     1
*Elset, elset=_PolyTop_S2, internal, generate
  611,  1146,     1
*Surface, type=ELEMENT, name=PolyTop
_PolyTop_S2, S2
*Elset, elset=_PolyBot_S1, internal, generate
  75,  610,    1
*Surface, type=ELEMENT, name=PolyBot
_PolyBot_S1, S1
*Elset, elset=_Polymer-rivet-0_S3, internal
 55, 65
*Elset, elset=_Polymer-rivet-0_S6, internal
 55, 65
*Elset, elset=_Polymer-rivet-0_S4, internal
 58, 59, 62, 64, 68, 69, 72, 74
*Elset, elset=_Polymer-rivet-0_S5, internal
 60, 61, 62, 63, 70, 71, 72, 73
*Surface, type=ELEMENT, name=Polymer-rivet-0
_Polymer-rivet-0_S3, S3
_Polymer-rivet-0_S6, S6
_Polymer-rivet-0_S4, S4
_Polymer-rivet-0_S5, S5
*Elset, elset=_Polymer-rivet-top-0_S1, internal, generate
 65,  74,   1
*Surface, type=ELEMENT, name=Polymer-rivet-top-0
_Polymer-rivet-top-0_S1, S1
*Elset, elset=_Polymer-rivet-bot-0_S2, internal, generate
 55,  64,   1
*Surface, type=ELEMENT, name=Polymer-rivet-bot-0
_Polymer-rivet-bot-0_S2, S2
*Elset, elset=_Polymer-rivet-1_S4, internal
 1147, 1150, 1151, 1154
*Elset, elset=_Polymer-rivet-1_S5, internal
 1147, 1150, 1151, 1154
*Elset, elset=_Polymer-rivet-1_S3, internal
 1148, 1149, 1152, 1153
*Elset, elset=_Polymer-rivet-1_S6, internal
 1148, 1149, 1152, 1153
*Surface, type=ELEMENT, name=Polymer-rivet-1
_Polymer-rivet-1_S4, S4
_Polymer-rivet-1_S5, S5
_Polymer-rivet-1_S6, S6
_Polymer-rivet-1_S3, S3
*Elset, elset=_Polymer-rivet-top-1_S1, internal, generate
 1151,  1154,     1
*Surface, type=ELEMENT, name=Polymer-rivet-top-1
_Polymer-rivet-top-1_S1, S1
*Elset, elset=_Polymer-rivet-bot-1_S2, internal, generate
 1147,  1150,     1
*Surface, type=ELEMENT, name=Polymer-rivet-bot-1
_Polymer-rivet-bot-1_S2, S2
*Elset, elset=_Polymer-rivet-2_S6, internal
  1,  8, 11, 28, 35, 38
*Elset, elset=_Polymer-rivet-2_S5, internal
  2, 15, 22, 29, 42, 49
*Elset, elset=_Polymer-rivet-2_S4, internal
  4,  7, 12, 16, 17, 23, 25, 26, 31, 34, 39, 43, 44, 50, 52, 53
*Elset, elset=_Polymer-rivet-2_S3, internal
 13, 18, 40, 45
*Surface, type=ELEMENT, name=Polymer-rivet-2
_Polymer-rivet-2_S6, S6
_Polymer-rivet-2_S5, S5
_Polymer-rivet-2_S4, S4
_Polymer-rivet-2_S3, S3
*Elset, elset=_Polymer-rivet-top-2_S1, internal, generate
 28,  54,   1
*Surface, type=ELEMENT, name=Polymer-rivet-top-2
_Polymer-rivet-top-2_S1, S1
*Elset, elset=_Polymer-rivet-bot-2_S2, internal, generate
  1,  27,   1
*Surface, type=ELEMENT, name=Polymer-rivet-bot-2
_Polymer-rivet-bot-2_S2, S2
*Elset, elset=_Polymer-rivet-3_S4, internal
 1155, 1158, 1159, 1162
*Elset, elset=_Polymer-rivet-3_S5, internal
 1155, 1158, 1159, 1162
*Elset, elset=_Polymer-rivet-3_S3, internal
 1156, 1157, 1160, 1161
*Elset, elset=_Polymer-rivet-3_S6, internal
 1156, 1157, 1160, 1161
*Surface, type=ELEMENT, name=Polymer-rivet-3
_Polymer-rivet-3_S4, S4
_Polymer-rivet-3_S5, S5
_Polymer-rivet-3_S6, S6
_Polymer-rivet-3_S3, S3
*Elset, elset=_Polymer-rivet-top-3_S1, internal, generate
 1159,  1162,     1
*Surface, type=ELEMENT, name=Polymer-rivet-top-3
_Polymer-rivet-top-3_S1, S1
*Elset, elset=_Polymer-rivet-bot-3_S2, internal, generate
 1155,  1158,     1
*Surface, type=ELEMENT, name=Polymer-rivet-bot-3
_Polymer-rivet-bot-3_S2, S2
** Section: PolySec
*Solid Section, elset=_PickedSet22, material=Polymer
,
** Section: PolySec
*Solid Section, elset=_PickedSet12, material=Polymer
,
** Section: PolySec
*Solid Section, elset=PolySet, material=Polymer
,
** Section: PolySec
*Solid Section, elset=_PickedSet17, material=Polymer
,
** Section: PolySec
*Solid Section, elset=_PickedSet27, material=Polymer
,
*End Part
**  
**
** ASSEMBLY
**
*Assembly, name=Assembly
**  
*Instance, name=Polymer-1, part=Polymer
*End Instance
**  
*Instance, name=Battery-1, part=Battery
         10.,          10.,           0.
*End Instance
**  
*Instance, name=CF-1, part=CF
          0.,           0.,         -0.4
*End Instance
**  
*Instance, name=CF-2, part=CF
          0.,           0.,          5.4
*End Instance
**  
*Node
      1,          55.,          55.,    5.4000001
*Nset, nset=VerticalSupport, instance=CF-1
   3,   4,   7,   8,  62,  63,  64,  65,  66,  67,  68,  69,  70,  71,  72,  73
  74,  75,  76,  77,  78,  79,  80,  81,  82,  83,  84,  85,  86,  87,  88,  89
  90,  91,  92,  93,  94,  95,  96,  97, 170, 171, 172, 173, 174, 175, 176, 177
 178, 179, 180, 181, 182, 183, 184, 185, 186, 187, 188, 189, 190, 191, 192, 193
 194, 195, 196, 197, 198, 199, 200, 201, 202, 203, 204, 205
*Elset, elset=VerticalSupport, instance=CF-1
  630,  631,  632,  633,  634,  635,  636,  637,  638,  639,  640,  641,  642,  643,  644,  645
  646,  647,  648,  649,  650,  651,  652,  653,  654,  655,  656,  657,  658,  659,  660,  661
  662,  663,  664,  665,  666, 1370, 1371, 1372, 1373, 1374, 1375, 1376, 1377, 1378, 1379, 1380
 1381, 1382, 1383, 1384, 1385, 1386, 1387, 1388, 1389, 1390, 1391, 1392, 1393, 1394, 1395, 1396
 1397, 1398, 1399, 1400, 1401, 1402, 1403, 1404, 1405, 1406
*Nset, nset=XDirSupport, instance=CF-1
 3,
*Nset, nset=YDirSupport, instance=CF-1
 7,
*Nset, nset=rigid_loading_set, instance=CF-2
   1,   2,   5,   6,   9,  10,  11,  12,  13,  14,  15,  16,  17,  18,  19,  20
  21,  22,  23,  24,  25,  26,  27,  28,  29,  30,  31,  32,  33,  34,  35,  36
  37,  38,  39,  40,  41,  42,  43,  44, 115, 116, 117, 118, 119, 120, 121, 122
 123, 124, 125, 126, 127, 128, 129, 130, 131, 132, 133, 134, 135, 136, 137, 138
 139, 140, 141, 142, 143, 144, 145, 146, 147, 148, 149, 150, 151, 152, 835, 836
 837, 838, 839, 840, 841, 842, 843, 844, 845, 846, 847, 848, 849, 850, 851, 852
 853, 854, 855, 856, 857, 858, 859, 860, 861, 862, 863, 864, 865, 866, 867, 868
 869, 870
*Elset, elset=rigid_loading_set, instance=CF-2, generate
 667,  740,    1
*Nset, nset=_PickedSet14, internal
 1,
*Elset, elset=__PickedSurf15_SPOS, internal, instance=CF-2, generate
 667,  740,    1
*Surface, type=ELEMENT, name=_PickedSurf15, internal
__PickedSurf15_SPOS, SPOS
** Constraint: BatPoly-0
*Tie, name=BatPoly-0, adjust=no, position tolerance=0.05
Battery-1.Battery-rivet-0, Polymer-1.Polymer-rivet-0
** Constraint: BatPoly-1
*Tie, name=BatPoly-1, adjust=no, position tolerance=0.05
Battery-1.Battery-rivet-1, Polymer-1.Polymer-rivet-1
** Constraint: BatPoly-2
*Tie, name=BatPoly-2, adjust=no, position tolerance=0.05
Battery-1.Battery-rivet-2, Polymer-1.Polymer-rivet-2
** Constraint: BatPoly-3
*Tie, name=BatPoly-3, adjust=no, position tolerance=0.05
Battery-1.Battery-rivet-3, Polymer-1.Polymer-rivet-3
** Constraint: CF1Bat
*Tie, name=CF1Bat, adjust=no, position tolerance=0.05
Battery-1.BatBot, CF-1.CFtop
** Constraint: CF1Poly
*Tie, name=CF1Poly, adjust=no, position tolerance=1.
Polymer-1.PolyBot, CF-1.CFtop
** Constraint: CF1Poly-Rivet-0
*Tie, name=CF1Poly-Rivet-0, adjust=no, position tolerance=1.
Polymer-1.Polymer-rivet-bot-0, CF-1.CFtop
** Constraint: CF1Poly-Rivet-1
*Tie, name=CF1Poly-Rivet-1, adjust=no, position tolerance=1.
Polymer-1.Polymer-rivet-bot-1, CF-1.CFtop
** Constraint: CF1Poly-Rivet-2
*Tie, name=CF1Poly-Rivet-2, adjust=no, position tolerance=1.
Polymer-1.Polymer-rivet-bot-2, CF-1.CFtop
** Constraint: CF1Poly-Rivet-3
*Tie, name=CF1Poly-Rivet-3, adjust=no, position tolerance=1.
Polymer-1.Polymer-rivet-bot-3, CF-1.CFtop
** Constraint: CF2Bat
*Tie, name=CF2Bat, adjust=no, position tolerance=0.05
Battery-1.BatTop, CF-2.CFbot
** Constraint: CF2Poly
*Tie, name=CF2Poly, adjust=no, position tolerance=1.
Polymer-1.PolyTop, CF-2.CFbot
** Constraint: CF2Poly-Rivet-0
*Tie, name=CF2Poly-Rivet-0, adjust=no, position tolerance=1.
Polymer-1.Polymer-rivet-top-0, CF-2.CFbot
** Constraint: CF2Poly-Rivet-1
*Tie, name=CF2Poly-Rivet-1, adjust=no, position tolerance=1.
Polymer-1.Polymer-rivet-top-1, CF-2.CFbot
** Constraint: CF2Poly-Rivet-2
*Tie, name=CF2Poly-Rivet-2, adjust=no, position tolerance=1.
Polymer-1.Polymer-rivet-top-2, CF-2.CFbot
** Constraint: CF2Poly-Rivet-3
*Tie, name=CF2Poly-Rivet-3, adjust=no, position tolerance=1.
Polymer-1.Polymer-rivet-top-3, CF-2.CFbot
** Constraint: LoadingRigidBody
*Rigid Body, ref node=_PickedSet14, tie nset=rigid_loading_set
*End Assembly
** 
** MATERIALS
** 
*Material, name=BatOrtho
*Elastic, type=ENGINEERING CONSTANTS
1090., 109., 500., 0.15, 0.15, 0.15, 474., 474.
 474.,
*Material, name=CF_material
*Elastic, type=ENGINEERING CONSTANTS
30420.,  4023.,  4023.,   0.29,   0.29, 0.3928,  2081.,  2081.
  1440.,
*Material, name=Polymer
*Elastic
500., 0.3
** 
** INTERACTION PROPERTIES
** 
*Surface Interaction, name=NormCont
1.,
*Friction, slip tolerance=0.005
 0.3,
*Surface Behavior, pressure-overclosure=HARD
** ----------------------------------------------------------------
** 
** STEP: Loading
** 
*Step, name=Loading, nlgeom=NO
*Static
1., 1., 1e-05, 1.
** 
** BOUNDARY CONDITIONS
** 
** Name: VerticalSupport Type: Displacement/Rotation
*Boundary
VerticalSupport, 3, 3
** Name: XDirSupport Type: Displacement/Rotation
*Boundary
XDirSupport, 1, 1
** Name: YDirSupport Type: Displacement/Rotation
*Boundary
YDirSupport, 2, 2
** 
** LOADS
** 
** Name: Load-1   Type: Pressure
*Dsload
_PickedSurf15, P, 0.181818
** 
** OUTPUT REQUESTS
** 
*Restart, write, frequency=0
** 
** FIELD OUTPUT: F-Output-1
** 
*Output, field
*Node Output
U, UR, UT
*Element Output, directions=YES
EVOL, 
** 
** HISTORY OUTPUT: H-Output-1
** 
*Output, history, variable=PRESELECT
*End Step
