 Abaqus/Standard 3DEXPERIENCE R2019x                  DATE 29-May-2019 TIME 14:30:18
 SUMMARY OF JOB INFORMATION:
 STEP  INC ATT SEVERE EQUIL TOTAL  TOTAL      STEP       INC OF       DOF    IF
               DISCON ITERS ITERS  TIME/    TIME/LPF    TIME/LPF    MONITOR RIKS
               ITERS               FREQ
   1     1   1U   17    16    33  0.000      0.000      1.000     
   1     1   2U   19    16    35  0.000      0.000      0.2500    
   1     1   3U    7     1     8  0.000      0.000      0.06250   
   1     1   4U   17     3    20  0.000      0.000      0.01563   
   1     1   5    15     1    16  0.00391    0.00391    0.003906  
   1     2   1U    4     6    10  0.00391    0.00391    0.003906  
   1     2   2U    3     5     8  0.00391    0.00391    0.0009766 
   1     2   3U    2     7     9  0.00391    0.00391    0.0002441 
   1     2   4U    2     4     6  0.00391    0.00391    6.104e-05 
   1     2   5     1     1     2  0.00392    0.00392    1.526e-05 
   1     3   1U    3     5     8  0.00392    0.00392    2.289e-05 
   1     3   2U    2     5     7  0.00392    0.00392    1.000e-05 
                          
 THE ANALYSIS HAS NOT BEEN COMPLETED
