*Heading
** Job name: Job-12 Model name: Model-1
** Generated by: Abaqus/CAE 2019
*Preprint, echo=NO, model=NO, history=NO, contact=NO
**
** PARTS
**
*Part, name=Battery
*Node
      1,   15.2159204,   65.4728165,           0.
      2,   13.4327974,   67.7087784,           0.
      3,   10.8561087,    68.949646,           0.
      4,   5.41951275,   67.7087784,           0.
      5,   3.63638949,   65.4728165,           0.
      6,           3.,   62.6846123,           0.
      7,   3.63638949,   59.8964081,           0.
      8,   5.41951275,   57.6604424,           0.
      9,   7.99620104,   56.4195747,           0.
     10,   13.4327974,   57.6604424,           0.
     11,   15.2159204,   59.8964081,           0.
     12,   15.8523102,   62.6846123,           0.
     13,   73.8322678,   22.1156445,           0.
     14,   71.8302612,   24.1176491,           0.
     15,   69.0954742,   24.8504333,           0.
     16,   66.3606873,   24.1176491,           0.
     17,   64.3586807,   22.1156445,           0.
     18,   63.6258965,   19.3808575,           0.
     19,   64.3586807,   16.6460705,           0.
     20,   66.3606873,   14.6440659,           0.
** ... 3880 like lines cut
*Element, type=C3D8R
   1, 1153,  189,    2,  193, 2453, 1489, 1302, 1493
   2,   45,    3, 1145,  192, 1345, 1303, 2445, 1492
   3,  106,  197,  196,  107, 1406, 1497, 1496, 1407
   4,  337,  314,  197,  243, 1637, 1614, 1497, 1543
   5,    6,    5,   97,   96, 1306, 1305, 1397, 1396
   6,   96,   95,    7,    6, 1396, 1395, 1307, 1306
   7,  283,  167,  384,  383, 1583, 1467, 1684, 1683
   8,  208,   80,   79,  199, 1508, 1380, 1379, 1499
   9,  338,  300,  199,  227, 1638, 1600, 1499, 1527
  10,   74,  296,  230,   75, 1374, 1596, 1530, 1375
  11,  301,  307,  207,  208, 1601, 1607, 1507, 1508
  12,   65,  222,  223,   66, 1365, 1522, 1523, 1366
  13,   53,  209,  202,   54, 1353, 1509, 1502, 1354
  14, 1160,  308,  394, 1167, 2460, 1608, 1694, 2467
  15,   49,  203,  211,   50, 1349, 1503, 1511, 1350
  16,  164,  479,  486,  511, 1464, 1779, 1786, 1811
  17,  655,   24,   23,  178, 1955, 1324, 1323, 1478
  18,  157,  273,  274,  158, 1457, 1573, 1574, 1458
  19,  155,  206,  205,  156, 1455, 1506, 1505, 1456
  20,  373,  302,  205,  206, 1673, 1602, 1505, 1506
** ... 2424 like lines cut
*Nset, nset=Batset, generate
    1,  3900,     1
*Elset, elset=Batset, generate
    1,  2444,     1
*Elset, elset=_BatTop_S2, internal, generate
 1223,  2444,     1
*Surface, type=ELEMENT, name=BatTop
_BatTop_S2, S2
*Elset, elset=_BatBot_S1, internal, generate
    1,  1222,     1
*Surface, type=ELEMENT, name=BatBot
_BatBot_S1, S1
*Elset, elset=_Battery-rivet-0_S5, internal
   34,  151, 1256, 1373
*Elset, elset=_Battery-rivet-0_S4, internal
   46,  154,  155,  156,  161, 1268, 1376, 1377, 1378, 1383
*Elset, elset=_Battery-rivet-0_S3, internal
   77, 1299
*Surface, type=ELEMENT, name=Battery-rivet-0
_Battery-rivet-0_S5, S5
_Battery-rivet-0_S4, S4
_Battery-rivet-0_S3, S3
*Elset, elset=_Battery-rivet-1_S4, internal
   39,   49,  149,  153, 1163, 1261, 1271, 1371, 1375, 2385
*Elset, elset=_Battery-rivet-1_S6, internal
   41, 1263
*Elset, elset=_Battery-rivet-1_S3, internal
   43, 1265
*Elset, elset=_Battery-rivet-1_S5, internal
   47, 1269
*Surface, type=ELEMENT, name=Battery-rivet-1
_Battery-rivet-1_S4, S4
_Battery-rivet-1_S6, S6
_Battery-rivet-1_S3, S3
_Battery-rivet-1_S5, S5
*Elset, elset=_Battery-rivet-2_S4, internal
   17,   42,  166,  171, 1239, 1264, 1388, 1393
*Elset, elset=_Battery-rivet-2_S5, internal
   40, 1262
*Elset, elset=_Battery-rivet-2_S3, internal
   53,  130,  164,  387, 1222, 1275, 1352, 1386, 1609, 2444
*Elset, elset=_Battery-rivet-2_S6, internal
   55,  135, 1277, 1357
*Surface, type=ELEMENT, name=Battery-rivet-2
_Battery-rivet-2_S4, S4
_Battery-rivet-2_S5, S5
_Battery-rivet-2_S6, S6
_Battery-rivet-2_S3, S3
*Elset, elset=_Battery-rivet-3_S3, internal
    2,    5,  160, 1224, 1227, 1382
*Elset, elset=_Battery-rivet-3_S5, internal
    6,   87,   90,  104,  179, 1228, 1309, 1312, 1326, 1401
*Elset, elset=_Battery-rivet-3_S6, internal
   33,   84, 1255, 1306
*Elset, elset=_Battery-rivet-3_S4, internal
   89,  177,  181,  182, 1311, 1399, 1403, 1404
*Surface, type=ELEMENT, name=Battery-rivet-3
_Battery-rivet-3_S3, S3
_Battery-rivet-3_S5, S5
_Battery-rivet-3_S6, S6
_Battery-rivet-3_S4, S4
*Orientation, name=Ori-1
1., 0., 0., 0., 1., 0.
3, 0.
** Section: BatOrtho
*Solid Section, elset=Batset, orientation=Ori-1, material=BatOrtho
,
*End Part
**  
*Part, name=CF
*Node
      1,         52.5,           0.,           0.
      2,         52.5,         110.,           0.
      3,           0.,         110.,           0.
      4,           0.,           0.,           0.
      5,         57.5,           0.,           0.
      6,         57.5,         110.,           0.
      7,         110.,           0.,           0.
      8,         110.,         110.,           0.
      9,         52.5,   2.97297287,           0.
     10,         52.5,   5.94594574,           0.
     11,         52.5,   8.91891861,           0.
     12,         52.5,   11.8918915,           0.
     13,         52.5,   14.8648653,           0.
     14,         52.5,   17.8378372,           0.
     15,         52.5,   20.8108101,           0.
     16,         52.5,    23.783783,           0.
     17,         52.5,   26.7567558,           0.
     18,         52.5,   29.7297306,           0.
     19,         52.5,   32.7027016,           0.
     20,         52.5,   35.6756744,           0.
** ... 1462 like lines cut
*Element, type=S4R
  1,   1,   9, 223, 114
  2,   9,  10, 224, 223
  3,  10,  11, 225, 224
  4,  11,  12, 226, 225
  5,  12,  13, 227, 226
  6,  13,  14, 228, 227
  7,  14,  15, 229, 228
  8,  15,  16, 230, 229
  9,  16,  17, 231, 230
 10,  17,  18, 232, 231
 11,  18,  19, 233, 232
 12,  19,  20, 234, 233
 13,  20,  21, 235, 234
 14,  21,  22, 236, 235
 15,  22,  23, 237, 236
 16,  23,  24, 238, 237
 17,  24,  25, 239, 238
 18,  25,  26, 240, 239
 19,  26,  27, 241, 240
 20,  27,  28, 242, 241
** ... 1386 like lines cut
*Nset, nset=CF_set, generate
    1,  1482,     1
*Elset, elset=CF_set, generate
    1,  1406,     1
*Elset, elset=_CFtop_SPOS, internal, generate
    1,  1406,     1
*Surface, type=ELEMENT, name=CFtop
_CFtop_SPOS, SPOS
*Elset, elset=_CFbot_SNEG, internal, generate
    1,  1406,     1
*Surface, type=ELEMENT, name=CFbot
_CFbot_SNEG, SNEG
** Section: CF_sec
*Shell Section, elset=CF_set, composite
0.2, 3, CF_material, 0.
0.2, 3, CF_material, 90.
0.2, 3, CF_material, 90.
0.2, 3, CF_material, 0.
*End Part
**  
*Part, name=Polymer
*Node
      1,   84.5650482,   29.3808575,           0.
      2,   84.5650482,   29.3808575,           5.
      3,   45.6594963,   32.6462975,           0.
      4,   45.6594963,   32.6462975,           5.
      5,          10.,         100.,           0.
      6,          10.,          10.,           0.
      7,         100.,          10.,           0.
      8,         100.,         100.,           0.
      9,         110.,           0.,           0.
     10,           0.,           0.,           0.
     11,           0.,         110.,           0.
     12,         110.,         110.,           0.
     13,          10.,          10.,           5.
     14,          10.,         100.,           5.
     15,         100.,         100.,           5.
     16,         100.,          10.,           5.
     17,           0.,         110.,           5.
     18,           0.,           0.,           5.
     19,         110.,           0.,           5.
     20,         110.,         110.,           5.
** ... 2233 like lines cut
*Element, type=C3D8R
 1, 1821,  664,  663, 1815,  637,   33,   32,  631
 2,  664, 1821, 1814,  665,   33,  637,  630,   34
 3, 1815, 1820, 1814, 1821,  631,  636,  630,  637
 4, 1819, 1823, 1817, 1824,  635,  639,  633,  640
 5, 1813, 1820, 1819, 1818,  629,  636,  635,  634
 6, 1818, 1819, 1824, 1825,  634,  635,  640,  641
 7, 1813, 1818,  656,  655,  629,  634,   25,    1
 8, 1813,  655,  666, 1820,  629,    1,   35,  636
 9,  662,  661, 1816, 1822,   31,   30,  632,  638
10, 1822, 1815,  663,  662,  638,  631,   32,   31
11,  660, 1823, 1816,  661,   29,  639,  632,   30
12,  659,  658, 1824, 1817,   28,   27,  640,  633
13,  656, 1818, 1825,  657,   25,  634,  641,   26
14, 1820, 1815, 1823, 1819,  636,  631,  639,  635
15, 1814, 1820,  666,  665,  630,  636,   35,   34
16, 1823,  660,  659, 1817,  639,   29,   28,  633
17, 1824,  658,  657, 1825,  640,   27,   26,  641
18, 1816, 1823, 1815, 1822,  632,  639,  631,  638
19,  650,   38,   39,  644, 1821,  664,  663, 1815
20,   38,  650,  643,   37,  664, 1821, 1814,  665
** ... 1164 like lines cut
*Nset, nset=PolySet
    5,    6,    7,    8,    9,   10,   11,   12,   13,   14,   15,   16,   17,   18,   19,   20
   61,   62,   63,   64,   65,   66,   67,   68,   69,   70,   71,   72,   73,   74,   75,   76
   77,   78,   79,   80,   81,   82,   83,   84,   85,   86,   87,   88,   89,   90,   91,   92
   93,   94,   95,   96,   97,   98,   99,  100,  101,  102,  103,  104,  105,  106,  107,  108
  109,  110,  111,  112,  113,  114,  115,  116,  117,  118,  119,  120,  121,  122,  123,  124
  125,  126,  127,  128,  129,  130,  131,  132,  133,  134,  135,  136,  137,  138,  139,  140
  141,  142,  143,  144,  145,  146,  147,  148,  149,  150,  151,  152,  153,  154,  155,  156
  157,  158,  159,  160,  161,  162,  163,  164,  165,  166,  167,  168,  169,  170,  171,  172
  173,  174,  175,  176,  177,  178,  179,  180,  181,  182,  183,  184,  185,  186,  187,  188
  189,  190,  191,  192,  193,  194,  195,  196,  197,  198,  199,  200,  201,  202,  203,  204
  205,  206,  207,  208,  209,  210,  211,  212,  213,  214,  215,  216,  217,  218,  219,  220
  221,  222,  223,  224,  225,  226,  227,  228,  229,  230,  231,  232,  233,  234,  235,  236
  237,  238,  239,  240,  241,  242,  243,  244,  245,  246,  247,  248,  249,  250,  251,  252
  253,  254,  255,  256,  257,  258,  259,  260,  261,  262,  263,  264,  265,  266,  267,  268
  269,  270,  271,  272,  273,  274,  275,  276,  277,  278,  279,  280,  281,  282,  283,  284
  285,  286,  287,  288,  289,  290,  291,  292,  293,  294,  295,  296,  297,  298,  299,  300
  301,  302,  303,  304,  305,  306,  307,  308,  309,  310,  311,  312,  313,  314,  315,  316
  317,  318,  319,  320,  321,  322,  323,  324,  325,  326,  327,  328,  329,  330,  331,  332
  333,  334,  335,  336,  337,  338,  339,  340,  341,  342,  343,  344,  345,  346,  347,  348
  349,  350,  351,  352,  353,  354,  355,  356,  357,  358,  359,  360,  361,  362,  363,  364
** ... 106 like lines cut
*Elset, elset=PolySet, generate
   45,  1116,     1
*Nset, nset=_PickedSet12, internal
    3,    4,   47,   48,   49,   50,   51,   52,   53,   54,   55,   56,   57,   58,   59,   60
  667,  668,  669,  670,  671,  672,  673,  674,  675,  676, 1826
*Elset, elset=_PickedSet12, internal, generate
 37,  44,   1
*Nset, nset=_PickedSet17, internal
   21,   22,  589,  590,  591,  592,  593,  594,  595,  596,  597,  598,  599,  600,  601,  602
 1741, 1742, 1743, 1744, 1745, 1746, 1747, 1748, 1749, 1750, 2229
*Elset, elset=_PickedSet17, internal, generate
 1117,  1124,     1
*Nset, nset=_PickedSet22, internal
    1,    2,   25,   26,   27,   28,   29,   30,   31,   32,   33,   34,   35,   36,   37,   38
   39,   40,   41,   42,   43,   44,   45,   46,  629,  630,  631,  632,  633,  634,  635,  636
  637,  638,  639,  640,  641,  642,  643,  644,  645,  646,  647,  648,  649,  650,  651,  652
  653,  654,  655,  656,  657,  658,  659,  660,  661,  662,  663,  664,  665,  666, 1813, 1814
 1815, 1816, 1817, 1818, 1819, 1820, 1821, 1822, 1823, 1824, 1825
*Elset, elset=_PickedSet22, internal, generate
  1,  36,   1
*Nset, nset=_PickedSet27, internal
   23,   24,  603,  604,  605,  606,  607,  608,  609,  610,  611,  612,  613,  614,  615,  616
  617,  618,  619,  620,  621,  622,  623,  624,  625,  626,  627,  628, 1751, 1752, 1753, 1754
 1755, 1756, 1757, 1758, 1759, 1760, 1761, 1762, 1763, 1764, 1765, 1766, 1767, 1768, 1769, 1770
 1771, 1772, 1773, 1774, 1775, 1776, 1777, 1778, 1779, 1780, 1781, 1782, 1783, 1784, 1785, 1786
 1787, 1788, 1789, 1790, 1791, 1792, 1793, 1794, 1795, 1796, 1797, 1798, 1799, 1800, 1801, 1802
 1803, 1804, 1805, 1806, 1807, 1808, 1809, 1810, 1811, 1812, 2230, 2231, 2232, 2233, 2234, 2235
 2236, 2237, 2238, 2239, 2240, 2241, 2242, 2243, 2244, 2245, 2246, 2247, 2248, 2249, 2250, 2251
 2252, 2253
*Elset, elset=_PickedSet27, internal, generate
 1125,  1184,     1
*Elset, elset=_PolyTop_S2, internal, generate
  581,  1116,     1
*Surface, type=ELEMENT, name=PolyTop
_PolyTop_S2, S2
*Elset, elset=_PolyBot_S1, internal, generate
  45,  580,    1
*Surface, type=ELEMENT, name=PolyBot
_PolyBot_S1, S1
*Elset, elset=_Polymer-rivet-0_S4, internal
 37, 39, 40, 41, 43, 44
*Elset, elset=_Polymer-rivet-0_S5, internal
 37, 39, 40, 41, 43, 44
*Elset, elset=_Polymer-rivet-0_S3, internal
 38, 42
*Elset, elset=_Polymer-rivet-0_S6, internal
 38, 42
*Surface, type=ELEMENT, name=Polymer-rivet-0
_Polymer-rivet-0_S4, S4
_Polymer-rivet-0_S5, S5
_Polymer-rivet-0_S6, S6
_Polymer-rivet-0_S3, S3
*Elset, elset=_Polymer-rivet-top-0_S1, internal, generate
 41,  44,   1
*Surface, type=ELEMENT, name=Polymer-rivet-top-0
_Polymer-rivet-top-0_S1, S1
*Elset, elset=_Polymer-rivet-bot-0_S2, internal, generate
 37,  40,   1
*Surface, type=ELEMENT, name=Polymer-rivet-bot-0
_Polymer-rivet-bot-0_S2, S2
*Elset, elset=_Polymer-rivet-1_S4, internal
 1117, 1120, 1121, 1124
*Elset, elset=_Polymer-rivet-1_S5, internal
 1117, 1120, 1121, 1124
*Elset, elset=_Polymer-rivet-1_S3, internal
 1118, 1119, 1122, 1123
*Elset, elset=_Polymer-rivet-1_S6, internal
 1118, 1119, 1122, 1123
*Surface, type=ELEMENT, name=Polymer-rivet-1
_Polymer-rivet-1_S4, S4
_Polymer-rivet-1_S5, S5
_Polymer-rivet-1_S6, S6
_Polymer-rivet-1_S3, S3
*Elset, elset=_Polymer-rivet-top-1_S1, internal, generate
 1121,  1124,     1
*Surface, type=ELEMENT, name=Polymer-rivet-top-1
_Polymer-rivet-top-1_S1, S1
*Elset, elset=_Polymer-rivet-bot-1_S2, internal, generate
 1117,  1120,     1
*Surface, type=ELEMENT, name=Polymer-rivet-bot-1
_Polymer-rivet-bot-1_S2, S2
*Elset, elset=_Polymer-rivet-2_S4, internal
  1,  8, 16, 17, 19, 26, 34, 35
*Elset, elset=_Polymer-rivet-2_S6, internal
  2, 11, 13, 20, 29, 31
*Elset, elset=_Polymer-rivet-2_S5, internal
  7, 10, 15, 25, 28, 33
*Elset, elset=_Polymer-rivet-2_S3, internal
  9, 12, 27, 30
*Surface, type=ELEMENT, name=Polymer-rivet-2
_Polymer-rivet-2_S4, S4
_Polymer-rivet-2_S6, S6
_Polymer-rivet-2_S5, S5
_Polymer-rivet-2_S3, S3
*Elset, elset=_Polymer-rivet-top-2_S1, internal, generate
 19,  36,   1
*Surface, type=ELEMENT, name=Polymer-rivet-top-2
_Polymer-rivet-top-2_S1, S1
*Elset, elset=_Polymer-rivet-bot-2_S2, internal, generate
  1,  18,   1
*Surface, type=ELEMENT, name=Polymer-rivet-bot-2
_Polymer-rivet-bot-2_S2, S2
*Elset, elset=_Polymer-rivet-3_S3, internal
 1126, 1140, 1149, 1153, 1156, 1170, 1179, 1183
*Elset, elset=_Polymer-rivet-3_S6, internal
 1128, 1142, 1158, 1172
*Elset, elset=_Polymer-rivet-3_S5, internal
 1129, 1134, 1135, 1137, 1143, 1147, 1152, 1154, 1159, 1164, 1165, 1167, 1173, 1177, 1182, 1184
*Surface, type=ELEMENT, name=Polymer-rivet-3
_Polymer-rivet-3_S3, S3
_Polymer-rivet-3_S6, S6
_Polymer-rivet-3_S5, S5
*Elset, elset=_Polymer-rivet-top-3_S1, internal, generate
 1155,  1184,     1
*Surface, type=ELEMENT, name=Polymer-rivet-top-3
_Polymer-rivet-top-3_S1, S1
*Elset, elset=_Polymer-rivet-bot-3_S2, internal, generate
 1125,  1154,     1
*Surface, type=ELEMENT, name=Polymer-rivet-bot-3
_Polymer-rivet-bot-3_S2, S2
** Section: PolySec
*Solid Section, elset=_PickedSet22, material=Polymer
,
** Section: PolySec
*Solid Section, elset=_PickedSet12, material=Polymer
,
** Section: PolySec
*Solid Section, elset=PolySet, material=Polymer
,
** Section: PolySec
*Solid Section, elset=_PickedSet17, material=Polymer
,
** Section: PolySec
*Solid Section, elset=_PickedSet27, material=Polymer
,
*End Part
**  
**
** ASSEMBLY
**
*Assembly, name=Assembly
**  
*Instance, name=Polymer-1, part=Polymer
*End Instance
**  
*Instance, name=Battery-1, part=Battery
         10.,          10.,           0.
*End Instance
**  
*Instance, name=CF-1, part=CF
          0.,           0.,         -0.4
*End Instance
**  
*Instance, name=CF-2, part=CF
          0.,           0.,          5.4
*End Instance
**  
*Node
      1,          55.,          55.,    5.4000001
*Nset, nset=VerticalSupport, instance=CF-1
   3,   4,   7,   8,  62,  63,  64,  65,  66,  67,  68,  69,  70,  71,  72,  73
  74,  75,  76,  77,  78,  79,  80,  81,  82,  83,  84,  85,  86,  87,  88,  89
  90,  91,  92,  93,  94,  95,  96,  97, 170, 171, 172, 173, 174, 175, 176, 177
 178, 179, 180, 181, 182, 183, 184, 185, 186, 187, 188, 189, 190, 191, 192, 193
 194, 195, 196, 197, 198, 199, 200, 201, 202, 203, 204, 205
*Elset, elset=VerticalSupport, instance=CF-1
  630,  631,  632,  633,  634,  635,  636,  637,  638,  639,  640,  641,  642,  643,  644,  645
  646,  647,  648,  649,  650,  651,  652,  653,  654,  655,  656,  657,  658,  659,  660,  661
  662,  663,  664,  665,  666, 1370, 1371, 1372, 1373, 1374, 1375, 1376, 1377, 1378, 1379, 1380
 1381, 1382, 1383, 1384, 1385, 1386, 1387, 1388, 1389, 1390, 1391, 1392, 1393, 1394, 1395, 1396
 1397, 1398, 1399, 1400, 1401, 1402, 1403, 1404, 1405, 1406
*Nset, nset=XDirSupport, instance=CF-1
 3,
*Nset, nset=YDirSupport, instance=CF-1
 7,
*Nset, nset=rigid_loading_set, instance=CF-2
   1,   2,   5,   6,   9,  10,  11,  12,  13,  14,  15,  16,  17,  18,  19,  20
  21,  22,  23,  24,  25,  26,  27,  28,  29,  30,  31,  32,  33,  34,  35,  36
  37,  38,  39,  40,  41,  42,  43,  44, 115, 116, 117, 118, 119, 120, 121, 122
 123, 124, 125, 126, 127, 128, 129, 130, 131, 132, 133, 134, 135, 136, 137, 138
 139, 140, 141, 142, 143, 144, 145, 146, 147, 148, 149, 150, 151, 152, 835, 836
 837, 838, 839, 840, 841, 842, 843, 844, 845, 846, 847, 848, 849, 850, 851, 852
 853, 854, 855, 856, 857, 858, 859, 860, 861, 862, 863, 864, 865, 866, 867, 868
 869, 870
*Elset, elset=rigid_loading_set, instance=CF-2, generate
 667,  740,    1
*Nset, nset=_PickedSet14, internal
 1,
*Elset, elset=__PickedSurf15_SPOS, internal, instance=CF-2, generate
 667,  740,    1
*Surface, type=ELEMENT, name=_PickedSurf15, internal
__PickedSurf15_SPOS, SPOS
** Constraint: BatPoly-0
*Tie, name=BatPoly-0, adjust=no, position tolerance=1.
Battery-1.Battery-rivet-0, Polymer-1.Polymer-rivet-0
** Constraint: BatPoly-1
*Tie, name=BatPoly-1, adjust=no, position tolerance=1.
Battery-1.Battery-rivet-1, Polymer-1.Polymer-rivet-1
** Constraint: BatPoly-2
*Tie, name=BatPoly-2, adjust=no, position tolerance=1.
Battery-1.Battery-rivet-2, Polymer-1.Polymer-rivet-2
** Constraint: BatPoly-3
*Tie, name=BatPoly-3, adjust=no, position tolerance=1.
Battery-1.Battery-rivet-3, Polymer-1.Polymer-rivet-3
** Constraint: CF1Poly
*Tie, name=CF1Poly, adjust=no, position tolerance=1.
Polymer-1.PolyBot, CF-1.CFtop
** Constraint: CF1Poly-Rivet-0
*Tie, name=CF1Poly-Rivet-0, adjust=no, position tolerance=1.
Polymer-1.Polymer-rivet-bot-0, CF-1.CFtop
** Constraint: CF1Poly-Rivet-1
*Tie, name=CF1Poly-Rivet-1, adjust=no, position tolerance=1.
Polymer-1.Polymer-rivet-bot-1, CF-1.CFtop
** Constraint: CF1Poly-Rivet-2
*Tie, name=CF1Poly-Rivet-2, adjust=no, position tolerance=1.
Polymer-1.Polymer-rivet-bot-2, CF-1.CFtop
** Constraint: CF1Poly-Rivet-3
*Tie, name=CF1Poly-Rivet-3, adjust=no, position tolerance=1.
Polymer-1.Polymer-rivet-bot-3, CF-1.CFtop
** Constraint: CF2Poly
*Tie, name=CF2Poly, adjust=no, position tolerance=1.
Polymer-1.PolyTop, CF-2.CFbot
** Constraint: CF2Poly-Rivet-0
*Tie, name=CF2Poly-Rivet-0, adjust=no, position tolerance=1.
Polymer-1.Polymer-rivet-top-0, CF-2.CFbot
** Constraint: CF2Poly-Rivet-1
*Tie, name=CF2Poly-Rivet-1, adjust=no, position tolerance=1.
Polymer-1.Polymer-rivet-top-1, CF-2.CFbot
** Constraint: CF2Poly-Rivet-2
*Tie, name=CF2Poly-Rivet-2, adjust=no, position tolerance=1.
Polymer-1.Polymer-rivet-top-2, CF-2.CFbot
** Constraint: CF2Poly-Rivet-3
*Tie, name=CF2Poly-Rivet-3, adjust=no, position tolerance=1.
Polymer-1.Polymer-rivet-top-3, CF-2.CFbot
** Constraint: LoadingRigidBody
*Rigid Body, ref node=_PickedSet14, tie nset=rigid_loading_set
*End Assembly
** 
** MATERIALS
** 
*Material, name=BatOrtho
*Elastic, type=ENGINEERING CONSTANTS
1090., 109., 500., 0.15, 0.15, 0.15, 474., 474.
 474.,
*Material, name=CF_material
*Elastic, type=ENGINEERING CONSTANTS
30420.,  4023.,  4023.,   0.29,   0.29, 0.3928,  2081.,  2081.
  1440.,
*Material, name=Polymer
*Elastic
500., 0.3
** 
** INTERACTION PROPERTIES
** 
*Surface Interaction, name=NormCont
1.,
*Friction, slip tolerance=0.005
 0.3,
*Surface Behavior, pressure-overclosure=HARD
** 
** INTERACTIONS
** 
** Interaction: CF1Bat
*Contact Pair, interaction=NormCont, type=SURFACE TO SURFACE
Battery-1.BatBot, CF-1.CFtop
** Interaction: CF2Bat
*Contact Pair, interaction=NormCont, type=SURFACE TO SURFACE
Battery-1.BatTop, CF-2.CFbot
** ----------------------------------------------------------------
** 
** STEP: Loading
** 
*Step, name=Loading, nlgeom=NO
*Static
1., 1., 1e-05, 1.
** 
** BOUNDARY CONDITIONS
** 
** Name: VerticalSupport Type: Displacement/Rotation
*Boundary
VerticalSupport, 3, 3
** Name: XDirSupport Type: Displacement/Rotation
*Boundary
XDirSupport, 1, 1
** Name: YDirSupport Type: Displacement/Rotation
*Boundary
YDirSupport, 2, 2
** 
** LOADS
** 
** Name: Load-1   Type: Pressure
*Dsload
_PickedSurf15, P, 0.181818
** 
** OUTPUT REQUESTS
** 
*Restart, write, frequency=0
** 
** FIELD OUTPUT: F-Output-1
** 
*Output, field
*Node Output
U, UR, UT
*Element Output, directions=YES
EVOL, 
** 
** HISTORY OUTPUT: H-Output-1
** 
*Output, history, variable=PRESELECT
*End Step
