 Abaqus/Standard 3DEXPERIENCE R2019x                  DATE 29-May-2019 TIME 15:12:14
 SUMMARY OF JOB INFORMATION:
 STEP  INC ATT SEVERE EQUIL TOTAL  TOTAL      STEP       INC OF       DOF    IF
               DISCON ITERS ITERS  TIME/    TIME/LPF    TIME/LPF    MONITOR RIKS
               ITERS               FREQ
   1     1   1U   17    16    33  0.000      0.000      1.000     
   1     1   2U   20    16    36  0.000      0.000      0.2500    
   1     1   3U   14     1    15  0.000      0.000      0.06250   
   1     1   4U   17     5    22  0.000      0.000      0.01563   
   1     1   5    14     1    15  0.00391    0.00391    0.003906  
   1     2   1     4     1     5  0.00781    0.00781    0.003906  
   1     3   1     2     1     3  0.0137     0.0137     0.005859  
   1     4   1U    2     2     4  0.0137     0.0137     0.008789  
   1     4   2U    1     6     7  0.0137     0.0137     0.002197  
   1     4   3     1     2     3  0.0142     0.0142     0.0005493 
   1     5   1     1     0     1  0.0150     0.0150     0.0008240 
   1     6   1     0     1     1  0.0163     0.0163     0.001236  
   1     7   1     0     1     1  0.0181     0.0181     0.001854  
   1     8   1U    0     4     4  0.0181     0.0181     0.002781  
   1     8   2U    0     4     4  0.0181     0.0181     0.0006952 
   1     8   3U    0     4     4  0.0181     0.0181     0.0001738 
   1     8   4U    0     4     4  0.0181     0.0181     4.345e-05 
   1     8   5     0     3     3  0.0181     0.0181     1.086e-05 
   1     9   1     0     1     1  0.0182     0.0182     1.629e-05 
   1    10   1U    0     4     4  0.0182     0.0182     2.444e-05 
   1    10   2U    0     4     4  0.0182     0.0182     1.000e-05 
                          
 THE ANALYSIS HAS NOT BEEN COMPLETED
