*Heading
** Job name: Job-1 Model name: Model-1
** Generated by: Abaqus/CAE 2019
*Preprint, echo=NO, model=NO, history=NO, contact=NO
**
** PARTS
**
*Part, name=Battery
*Node
      1,   15.0883236,   14.4347639,           0.
      2,   12.9670038,   15.3134432,           0.
      3,   10.8456831,   14.4347639,           0.
      4,   9.96700382,   12.3134432,           0.
      5,   10.8456831,   10.1921234,           0.
      6,   12.9670038,   9.31344318,           0.
      7,   15.0883236,   10.1921234,           0.
      8,   15.9670038,   12.3134432,           0.
      9,   50.3822327,   51.3409576,           0.
     10,   48.2602882,   52.2198982,           0.
     11,   46.1383438,   51.3409576,           0.
     12,   45.2594032,   49.2190132,           0.
     13,   46.1383438,    47.097065,           0.
     14,   48.2602882,   46.2181282,           0.
     15,   50.3822327,    47.097065,           0.
     16,   51.2611732,   49.2190132,           0.
     17,   29.0277538,   9.15547943,           0.
     18,   26.4780712,   10.2115927,           0.
     19,   23.9283886,   9.15547943,           0.
     20,   22.8722744,   6.60579634,           0.
** ... 3994 like lines cut
*Element, type=C3D8R
   1,  109,  240,  241,  110, 1447, 1578, 1579, 1448
   2,  237,  101,  100,  236, 1575, 1439, 1438, 1574
   3,  257,  126,  125,  256, 1595, 1464, 1463, 1594
   4,  289,   11,   10,  171, 1627, 1349, 1348, 1509
   5,  389,  167,    3,  280, 1727, 1505, 1341, 1618
   6,  343,  224,  196,  340, 1681, 1562, 1534, 1678
   7,   77,  221,  222,   78, 1415, 1559, 1560, 1416
   8, 1165,    5,    4, 1060, 2503, 1343, 1342, 2398
   9,  221,  220,  298,  303, 1559, 1558, 1636, 1641
  10,  199, 1181,  337,  198, 1537, 2519, 1675, 1536
  11,    6,  469,  304,  165, 1344, 1807, 1642, 1503
  12,   20,  176,  292,   21, 1358, 1514, 1630, 1359
  13,  336,  219,  205,  326, 1674, 1557, 1543, 1664
  14,  179,  395,  163,  390, 1517, 1733, 1501, 1728
  15,  278,  169,    1,    8, 1616, 1507, 1339, 1346
  16,   87,  226,  204,   88, 1425, 1564, 1542, 1426
  17,  480, 1199,  451,  478, 1818, 2537, 1789, 1816
  18,  628,  262,  136,  135, 1966, 1600, 1474, 1473
  19,   41,  133,  200,  134, 1379, 1471, 1538, 1472
  20,  257,  256,  365,  320, 1595, 1594, 1703, 1658
** ... 2500 like lines cut
*Nset, nset=Batset, generate
    1,  4014,     1
*Elset, elset=Batset, generate
    1,  2520,     1
*Elset, elset=_BatTop_S2, internal, generate
 1261,  2520,     1
*Surface, type=ELEMENT, name=BatTop
_BatTop_S2, S2
*Elset, elset=_BatBot_S1, internal, generate
    1,  1260,     1
*Surface, type=ELEMENT, name=BatBot
_BatBot_S1, S1
*Elset, elset=_Battery-rivet-0_S6, internal
   23,   39,   52,   55, 1283, 1299, 1312, 1315
*Elset, elset=_Battery-rivet-0_S4, internal
   38,  171,  177,  184, 1298, 1431, 1437, 1444
*Elset, elset=_Battery-rivet-0_S5, internal
   48,  172,  174,  181,  209, 1308, 1432, 1434, 1441, 1469
*Elset, elset=_Battery-rivet-0_S3, internal
   53,   54,   58,  131,  134, 1313, 1314, 1318, 1391, 1394
*Surface, type=ELEMENT, name=Battery-rivet-0
_Battery-rivet-0_S6, S6
_Battery-rivet-0_S4, S4
_Battery-rivet-0_S5, S5
_Battery-rivet-0_S3, S3
*Elset, elset=_Battery-rivet-1_S6, internal
   12,   37,   66,   67, 1272, 1297, 1326, 1327
*Elset, elset=_Battery-rivet-1_S3, internal
   61,  152, 1321, 1412
*Elset, elset=_Battery-rivet-1_S4, internal
  165,  168, 1425, 1428
*Surface, type=ELEMENT, name=Battery-rivet-1
_Battery-rivet-1_S6, S6
_Battery-rivet-1_S3, S3
_Battery-rivet-1_S4, S4
*Elset, elset=_Battery-rivet-2_S4, internal
    4,   22,   79,  118,  159, 1264, 1282, 1339, 1378, 1419
*Elset, elset=_Battery-rivet-2_S3, internal
  125, 1385
*Elset, elset=_Battery-rivet-2_S5, internal
  153,  154, 1413, 1414
*Surface, type=ELEMENT, name=Battery-rivet-2
_Battery-rivet-2_S4, S4
_Battery-rivet-2_S3, S3
_Battery-rivet-2_S5, S5
*Elset, elset=_Battery-rivet-3_S4, internal
    8,   68,  139,  140,  147,  148, 1268, 1328, 1399, 1400, 1407, 1408
*Elset, elset=_Battery-rivet-3_S5, internal
   15,  151, 1275, 1411
*Surface, type=ELEMENT, name=Battery-rivet-3
_Battery-rivet-3_S4, S4
_Battery-rivet-3_S5, S5
*Orientation, name=Ori-1
1., 0., 0., 0., 1., 0.
3, 0.
** Section: BatOrtho
*Solid Section, elset=Batset, orientation=Ori-1, material=BatOrtho
,
*End Part
**  
*Part, name=CF
*Node
      1,         52.5,           0.,           0.
      2,         52.5,         110.,           0.
      3,           0.,         110.,           0.
      4,           0.,           0.,           0.
      5,         57.5,           0.,           0.
      6,         57.5,         110.,           0.
      7,         110.,           0.,           0.
      8,         110.,         110.,           0.
      9,         52.5,   2.97297287,           0.
     10,         52.5,   5.94594574,           0.
     11,         52.5,   8.91891861,           0.
     12,         52.5,   11.8918915,           0.
     13,         52.5,   14.8648653,           0.
     14,         52.5,   17.8378372,           0.
     15,         52.5,   20.8108101,           0.
     16,         52.5,    23.783783,           0.
     17,         52.5,   26.7567558,           0.
     18,         52.5,   29.7297306,           0.
     19,         52.5,   32.7027016,           0.
     20,         52.5,   35.6756744,           0.
** ... 1462 like lines cut
*Element, type=S4R
  1,   1,   9, 223, 114
  2,   9,  10, 224, 223
  3,  10,  11, 225, 224
  4,  11,  12, 226, 225
  5,  12,  13, 227, 226
  6,  13,  14, 228, 227
  7,  14,  15, 229, 228
  8,  15,  16, 230, 229
  9,  16,  17, 231, 230
 10,  17,  18, 232, 231
 11,  18,  19, 233, 232
 12,  19,  20, 234, 233
 13,  20,  21, 235, 234
 14,  21,  22, 236, 235
 15,  22,  23, 237, 236
 16,  23,  24, 238, 237
 17,  24,  25, 239, 238
 18,  25,  26, 240, 239
 19,  26,  27, 241, 240
 20,  27,  28, 242, 241
** ... 1386 like lines cut
*Nset, nset=CF_set, generate
    1,  1482,     1
*Elset, elset=CF_set, generate
    1,  1406,     1
*Elset, elset=_CFtop_SPOS, internal, generate
    1,  1406,     1
*Surface, type=ELEMENT, name=CFtop
_CFtop_SPOS, SPOS
*Elset, elset=_CFbot_SNEG, internal, generate
    1,  1406,     1
*Surface, type=ELEMENT, name=CFbot
_CFbot_SNEG, SNEG
** Section: CF_sec
*Shell Section, elset=CF_set, composite
0.2, 3, CF_material, 0.
0.2, 3, CF_material, 90.
0.2, 3, CF_material, 90.
0.2, 3, CF_material, 0.
*End Part
**  
*Part, name=Polymer
*Node
      1,   61.2611732,   59.2190132,           0.
      2,   61.2611732,   59.2190132,           5.
      3,          97.,     21.62887,           0.
      4,          97.,     21.62887,           5.
      5,          10.,         100.,           0.
      6,          10.,          10.,           0.
      7,         100.,          10.,           0.
      8,         100.,         100.,           0.
      9,         110.,           0.,           0.
     10,           0.,           0.,           0.
     11,           0.,         110.,           0.
     12,         110.,         110.,           0.
     13,          10.,          10.,           5.
     14,          10.,         100.,           5.
     15,         100.,         100.,           5.
     16,         100.,          10.,           5.
     17,           0.,         110.,           5.
     18,           0.,           0.,           5.
     19,         110.,           0.,           5.
     20,         110.,         110.,           5.
** ... 2227 like lines cut
*Element, type=C3D8R
1,  638,  637, 1809,  631,   31,   30,  629,    1
2,  636,  635, 1809,  637,   29,   28,  629,   30
3,  634,  633, 1809,  635,   27,   26,  629,   28
4, 1809,  633,  632,  631,  629,   26,   25,    1
5,   32,   33,  630,    2,  638,  637, 1809,  631
6,   34,   35,  630,   33,  636,  635, 1809,  637
7,   36,   37,  630,   35,  634,  633, 1809,  635
8,  630,   37,   38,    2, 1809,  633,  632,  631
 9, 1818,  723,  722, 1811,  647,   54,   53,  640
10, 1820,  721,  720, 1842,  649,   52,   51,  671
11, 1842, 1841, 1811, 1820,  671,  670,  640,  649
12,  724, 1810, 1816,  707,   55,  639,  645,    3
13, 1839, 1814, 1823, 1828,  668,  643,  652,  657
14, 1829, 1817,  710,  709,  658,  646,   41,   40
15, 1822, 1817, 1837, 1819,  651,  646,  666,  648
16,  709,  708, 1815, 1829,   40,   39,  644,  658
17, 1816, 1815,  708,  707,  645,  644,   39,    3
18, 1838, 1815, 1816, 1825,  667,  644,  645,  654
19, 1839, 1828, 1813, 1821,  668,  657,  642,  650
20, 1812, 1835, 1813, 1826,  641,  664,  642,  655
** ... 1160 like lines cut
*Nset, nset=PolySet
    5,    6,    7,    8,    9,   10,   11,   12,   13,   14,   15,   16,   17,   18,   19,   20
   73,   74,   75,   76,   77,   78,   79,   80,   81,   82,   83,   84,   85,   86,   87,   88
   89,   90,   91,   92,   93,   94,   95,   96,   97,   98,   99,  100,  101,  102,  103,  104
  105,  106,  107,  108,  109,  110,  111,  112,  113,  114,  115,  116,  117,  118,  119,  120
  121,  122,  123,  124,  125,  126,  127,  128,  129,  130,  131,  132,  133,  134,  135,  136
  137,  138,  139,  140,  141,  142,  143,  144,  145,  146,  147,  148,  149,  150,  151,  152
  153,  154,  155,  156,  157,  158,  159,  160,  161,  162,  163,  164,  165,  166,  167,  168
  169,  170,  171,  172,  173,  174,  175,  176,  177,  178,  179,  180,  181,  182,  183,  184
  185,  186,  187,  188,  189,  190,  191,  192,  193,  194,  195,  196,  197,  198,  199,  200
  201,  202,  203,  204,  205,  206,  207,  208,  209,  210,  211,  212,  213,  214,  215,  216
  217,  218,  219,  220,  221,  222,  223,  224,  225,  226,  227,  228,  229,  230,  231,  232
  233,  234,  235,  236,  237,  238,  239,  240,  241,  242,  243,  244,  245,  246,  247,  248
  249,  250,  251,  252,  253,  254,  255,  256,  257,  258,  259,  260,  261,  262,  263,  264
  265,  266,  267,  268,  269,  270,  271,  272,  273,  274,  275,  276,  277,  278,  279,  280
  281,  282,  283,  284,  285,  286,  287,  288,  289,  290,  291,  292,  293,  294,  295,  296
  297,  298,  299,  300,  301,  302,  303,  304,  305,  306,  307,  308,  309,  310,  311,  312
  313,  314,  315,  316,  317,  318,  319,  320,  321,  322,  323,  324,  325,  326,  327,  328
  329,  330,  331,  332,  333,  334,  335,  336,  337,  338,  339,  340,  341,  342,  343,  344
  345,  346,  347,  348,  349,  350,  351,  352,  353,  354,  355,  356,  357,  358,  359,  360
  361,  362,  363,  364,  365,  366,  367,  368,  369,  370,  371,  372,  373,  374,  375,  376
** ... 106 like lines cut
*Elset, elset=PolySet, generate
   93,  1164,     1
*Nset, nset=_PickedSet12, internal
    3,    4,   39,   40,   41,   42,   43,   44,   45,   46,   47,   48,   49,   50,   51,   52
   53,   54,   55,   56,   57,   58,   59,   60,   61,   62,   63,   64,   65,   66,   67,   68
   69,   70,   71,   72,  639,  640,  641,  642,  643,  644,  645,  646,  647,  648,  649,  650
  651,  652,  653,  654,  655,  656,  657,  658,  659,  660,  661,  662,  663,  664,  665,  666
  667,  668,  669,  670,  671,  672,  673,  674,  675,  676,  677,  678,  679,  680,  681,  682
  683,  684,  685,  686,  687,  688,  689,  690,  691,  692,  693,  694,  695,  696,  697,  698
  699,  700,  701,  702,  703,  704,  705,  706,  707,  708,  709,  710,  711,  712,  713,  714
  715,  716,  717,  718,  719,  720,  721,  722,  723,  724, 1810, 1811, 1812, 1813, 1814, 1815
 1816, 1817, 1818, 1819, 1820, 1821, 1822, 1823, 1824, 1825, 1826, 1827, 1828, 1829, 1830, 1831
 1832, 1833, 1834, 1835, 1836, 1837, 1838, 1839, 1840, 1841, 1842, 1843
*Elset, elset=_PickedSet12, internal, generate
  9,  92,   1
*Nset, nset=_PickedSet17, internal
   21,   22,  601,  602,  603,  604,  605,  606,  607,  608,  609,  610,  611,  612,  613,  614
 1789, 1790, 1791, 1792, 1793, 1794, 1795, 1796, 1797, 1798, 2246
*Elset, elset=_PickedSet17, internal, generate
 1165,  1172,     1
*Nset, nset=_PickedSet22, internal
    1,    2,   25,   26,   27,   28,   29,   30,   31,   32,   33,   34,   35,   36,   37,   38
  629,  630,  631,  632,  633,  634,  635,  636,  637,  638, 1809
*Elset, elset=_PickedSet22, internal, generate
 1,  8,  1
*Nset, nset=_PickedSet27, internal
   23,   24,  615,  616,  617,  618,  619,  620,  621,  622,  623,  624,  625,  626,  627,  628
 1799, 1800, 1801, 1802, 1803, 1804, 1805, 1806, 1807, 1808, 2247
*Elset, elset=_PickedSet27, internal, generate
 1173,  1180,     1
*Elset, elset=_PolyTop_S2, internal, generate
  629,  1164,     1
*Surface, type=ELEMENT, name=PolyTop
_PolyTop_S2, S2
*Elset, elset=_PolyBot_S1, internal, generate
  93,  628,    1
*Surface, type=ELEMENT, name=PolyBot
_PolyBot_S1, S1
*Elset, elset=_Polymer-rivet-0_S4, internal
  9, 10, 22, 24, 49, 50, 51, 52, 64, 66, 91, 92
*Elset, elset=_Polymer-rivet-0_S6, internal
 12, 27, 28, 54, 69, 70
*Elset, elset=_Polymer-rivet-0_S5, internal
 14, 17, 30, 46, 56, 59, 72, 88
*Elset, elset=_Polymer-rivet-0_S3, internal
 16, 26, 37, 39, 45, 58, 68, 79, 81, 87
*Surface, type=ELEMENT, name=Polymer-rivet-0
_Polymer-rivet-0_S4, S4
_Polymer-rivet-0_S6, S6
_Polymer-rivet-0_S5, S5
_Polymer-rivet-0_S3, S3
*Elset, elset=_Polymer-rivet-top-0_S1, internal, generate
 51,  92,   1
*Surface, type=ELEMENT, name=Polymer-rivet-top-0
_Polymer-rivet-top-0_S1, S1
*Elset, elset=_Polymer-rivet-bot-0_S2, internal, generate
  9,  50,   1
*Surface, type=ELEMENT, name=Polymer-rivet-bot-0
_Polymer-rivet-bot-0_S2, S2
*Elset, elset=_Polymer-rivet-1_S4, internal
 1165, 1168, 1169, 1172
*Elset, elset=_Polymer-rivet-1_S5, internal
 1165, 1168, 1169, 1172
*Elset, elset=_Polymer-rivet-1_S3, internal
 1166, 1167, 1170, 1171
*Elset, elset=_Polymer-rivet-1_S6, internal
 1166, 1167, 1170, 1171
*Surface, type=ELEMENT, name=Polymer-rivet-1
_Polymer-rivet-1_S4, S4
_Polymer-rivet-1_S5, S5
_Polymer-rivet-1_S6, S6
_Polymer-rivet-1_S3, S3
*Elset, elset=_Polymer-rivet-top-1_S1, internal, generate
 1169,  1172,     1
*Surface, type=ELEMENT, name=Polymer-rivet-top-1
_Polymer-rivet-top-1_S1, S1
*Elset, elset=_Polymer-rivet-bot-1_S2, internal, generate
 1165,  1168,     1
*Surface, type=ELEMENT, name=Polymer-rivet-bot-1
_Polymer-rivet-bot-1_S2, S2
*Elset, elset=_Polymer-rivet-2_S3, internal
 1, 2, 3, 5, 6, 7
*Elset, elset=_Polymer-rivet-2_S6, internal
 1, 2, 3, 5, 6, 7
*Elset, elset=_Polymer-rivet-2_S4, internal
 4, 8
*Elset, elset=_Polymer-rivet-2_S5, internal
 4, 8
*Surface, type=ELEMENT, name=Polymer-rivet-2
_Polymer-rivet-2_S3, S3
_Polymer-rivet-2_S6, S6
_Polymer-rivet-2_S4, S4
_Polymer-rivet-2_S5, S5
*Elset, elset=_Polymer-rivet-top-2_S1, internal, generate
 5,  8,  1
*Surface, type=ELEMENT, name=Polymer-rivet-top-2
_Polymer-rivet-top-2_S1, S1
*Elset, elset=_Polymer-rivet-bot-2_S2, internal, generate
 1,  4,  1
*Surface, type=ELEMENT, name=Polymer-rivet-bot-2
_Polymer-rivet-bot-2_S2, S2
*Elset, elset=_Polymer-rivet-3_S4, internal
 1173, 1176, 1177, 1180
*Elset, elset=_Polymer-rivet-3_S5, internal
 1173, 1176, 1177, 1180
*Elset, elset=_Polymer-rivet-3_S3, internal
 1174, 1175, 1178, 1179
*Elset, elset=_Polymer-rivet-3_S6, internal
 1174, 1175, 1178, 1179
*Surface, type=ELEMENT, name=Polymer-rivet-3
_Polymer-rivet-3_S4, S4
_Polymer-rivet-3_S5, S5
_Polymer-rivet-3_S6, S6
_Polymer-rivet-3_S3, S3
*Elset, elset=_Polymer-rivet-top-3_S1, internal, generate
 1177,  1180,     1
*Surface, type=ELEMENT, name=Polymer-rivet-top-3
_Polymer-rivet-top-3_S1, S1
*Elset, elset=_Polymer-rivet-bot-3_S2, internal, generate
 1173,  1176,     1
*Surface, type=ELEMENT, name=Polymer-rivet-bot-3
_Polymer-rivet-bot-3_S2, S2
** Section: PolySec
*Solid Section, elset=_PickedSet22, material=Polymer
,
** Section: PolySec
*Solid Section, elset=_PickedSet12, material=Polymer
,
** Section: PolySec
*Solid Section, elset=PolySet, material=Polymer
,
** Section: PolySec
*Solid Section, elset=_PickedSet17, material=Polymer
,
** Section: PolySec
*Solid Section, elset=_PickedSet27, material=Polymer
,
*End Part
**  
**
** ASSEMBLY
**
*Assembly, name=Assembly
**  
*Instance, name=Polymer-1, part=Polymer
*End Instance
**  
*Instance, name=Battery-1, part=Battery
         10.,          10.,           0.
*End Instance
**  
*Instance, name=CF-1, part=CF
          0.,           0.,         -0.4
*End Instance
**  
*Instance, name=CF-2, part=CF
          0.,           0.,          5.4
*End Instance
**  
*Nset, nset=VerticalSupport, instance=CF-1
   3,   4,   7,   8,  62,  63,  64,  65,  66,  67,  68,  69,  70,  71,  72,  73
  74,  75,  76,  77,  78,  79,  80,  81,  82,  83,  84,  85,  86,  87,  88,  89
  90,  91,  92,  93,  94,  95,  96,  97, 170, 171, 172, 173, 174, 175, 176, 177
 178, 179, 180, 181, 182, 183, 184, 185, 186, 187, 188, 189, 190, 191, 192, 193
 194, 195, 196, 197, 198, 199, 200, 201, 202, 203, 204, 205
*Elset, elset=VerticalSupport, instance=CF-1
  630,  631,  632,  633,  634,  635,  636,  637,  638,  639,  640,  641,  642,  643,  644,  645
  646,  647,  648,  649,  650,  651,  652,  653,  654,  655,  656,  657,  658,  659,  660,  661
  662,  663,  664,  665,  666, 1370, 1371, 1372, 1373, 1374, 1375, 1376, 1377, 1378, 1379, 1380
 1381, 1382, 1383, 1384, 1385, 1386, 1387, 1388, 1389, 1390, 1391, 1392, 1393, 1394, 1395, 1396
 1397, 1398, 1399, 1400, 1401, 1402, 1403, 1404, 1405, 1406
*Nset, nset=XDirSupport, instance=CF-1
 3, 4
*Nset, nset=YDirSupport, instance=CF-1
 7,
*Elset, elset=__PickedSurf12_SPOS, internal, instance=CF-2, generate
 667,  740,    1
*Surface, type=ELEMENT, name=_PickedSurf12, internal
__PickedSurf12_SPOS, SPOS
** Constraint: CF1Poly
*Tie, name=CF1Poly, adjust=no, position tolerance=0.05
Polymer-1.PolyBot, CF-1.CFtop
** Constraint: CF1Poly-Rivet-0
*Tie, name=CF1Poly-Rivet-0, adjust=no, position tolerance=0.05
Polymer-1.Polymer-rivet-bot-0, CF-1.CFtop
** Constraint: CF1Poly-Rivet-1
*Tie, name=CF1Poly-Rivet-1, adjust=no, position tolerance=0.05
Polymer-1.Polymer-rivet-bot-1, CF-1.CFtop
** Constraint: CF1Poly-Rivet-2
*Tie, name=CF1Poly-Rivet-2, adjust=no, position tolerance=0.05
Polymer-1.Polymer-rivet-bot-2, CF-1.CFtop
** Constraint: CF1Poly-Rivet-3
*Tie, name=CF1Poly-Rivet-3, adjust=no, position tolerance=0.05
Polymer-1.Polymer-rivet-bot-3, CF-1.CFtop
** Constraint: CF2Poly
*Tie, name=CF2Poly, adjust=no, position tolerance=0.05
Polymer-1.PolyTop, CF-2.CFbot
** Constraint: CF2Poly-Rivet-0
*Tie, name=CF2Poly-Rivet-0, adjust=no, position tolerance=0.05
Polymer-1.Polymer-rivet-top-0, CF-2.CFbot
** Constraint: CF2Poly-Rivet-1
*Tie, name=CF2Poly-Rivet-1, adjust=no, position tolerance=0.05
Polymer-1.Polymer-rivet-top-1, CF-2.CFbot
** Constraint: CF2Poly-Rivet-2
*Tie, name=CF2Poly-Rivet-2, adjust=no, position tolerance=0.05
Polymer-1.Polymer-rivet-top-2, CF-2.CFbot
** Constraint: CF2Poly-Rivet-3
*Tie, name=CF2Poly-Rivet-3, adjust=no, position tolerance=0.05
Polymer-1.Polymer-rivet-top-3, CF-2.CFbot
*End Assembly
** 
** MATERIALS
** 
*Material, name=BatOrtho
*Elastic, type=ENGINEERING CONSTANTS
1090.,1090., 500., 0.15, 0.15, 0.15, 474., 474.
 474.,
*Material, name=CF_material
*Elastic, type=LAMINA
30420.,4023., 0.29,2081.,2081.,1440.
*Material, name=Polymer
*Elastic
600., 0.3
** 
** INTERACTION PROPERTIES
** 
*Surface Interaction, name=NormCont
1.,
*Friction, slip tolerance=0.005
 0.3,
*Surface Behavior, pressure-overclosure=HARD
** 
** INTERACTIONS
** 
** Interaction: BatPoly-0
*Contact Pair, interaction=NormCont, type=SURFACE TO SURFACE
Battery-1.Battery-rivet-0, Polymer-1.Polymer-rivet-0
** Interaction: BatPoly-1
*Contact Pair, interaction=NormCont, type=SURFACE TO SURFACE
Battery-1.Battery-rivet-1, Polymer-1.Polymer-rivet-1
** Interaction: BatPoly-2
*Contact Pair, interaction=NormCont, type=SURFACE TO SURFACE
Battery-1.Battery-rivet-2, Polymer-1.Polymer-rivet-2
** Interaction: BatPoly-3
*Contact Pair, interaction=NormCont, type=SURFACE TO SURFACE
Battery-1.Battery-rivet-3, Polymer-1.Polymer-rivet-3
** Interaction: CF1Bat
*Contact Pair, interaction=NormCont, type=SURFACE TO SURFACE
Battery-1.BatBot, CF-1.CFtop
** Interaction: CF2Bat
*Contact Pair, interaction=NormCont, type=SURFACE TO SURFACE
Battery-1.BatTop, CF-2.CFbot
** ----------------------------------------------------------------
** 
** STEP: Loading
** 
*Step, name=Loading, nlgeom=YES
*Static
1., 1., 1e-05, 1.
** 
** LOADS
** 
** Name: Load-1   Type: Pressure
*Dsload
_PickedSurf12, P, 0.181818
** 
** OUTPUT REQUESTS
** 
*Restart, write, frequency=0
** 
** FIELD OUTPUT: F-Output-1
** 
*Output, field
*Node Output
U, UR, UT
*Element Output, directions=YES
EVOL, 
** 
** HISTORY OUTPUT: H-Output-1
** 
*Output, history, variable=PRESELECT
*End Step
