1

   Abaqus 3DEXPERIENCE R2019x                                  Date 27-May-2019   Time 17:44:46
   For demonstration or benchmarking only under agreement with Dassault Systemes or its subsidiary.

                                                                                 
                                                                                 
 STEP    1     INCREMENT     1     STEP TIME    0.00    


                        S T E P       1     S T A T I C   A N A L Y S I S


                                                                                          

     AUTOMATIC TIME CONTROL WITH -
          A SUGGESTED INITIAL TIME INCREMENT OF                 1.00    
          AND A TOTAL TIME PERIOD OF                            1.00    
          THE MINIMUM TIME INCREMENT ALLOWED IS                1.000E-05
          THE MAXIMUM TIME INCREMENT ALLOWED IS                 1.00    

     LINEAR EQUATION SOLVER TYPE         DIRECT SPARSE

 CONVERGENCE TOLERANCE PARAMETERS FOR FORCE    
     CRITERION FOR RESIDUAL FORCE     FOR A NONLINEAR PROBLEM          5.000E-03
     CRITERION FOR DISP.    CORRECTION IN A NONLINEAR PROBLEM          1.000E-02
     INITIAL VALUE OF TIME AVERAGE FORCE                               1.000E-02
     AVERAGE FORCE     IS TIME AVERAGE FORCE    
     ALTERNATE CRIT. FOR RESIDUAL FORCE     FOR A NONLINEAR PROBLEM    2.000E-02
     CRITERION FOR ZERO FORCE     RELATIVE TO TIME AVRG. FORCE         1.000E-05
     CRITERION FOR RESIDUAL FORCE     WHEN THERE IS ZERO FLUX          1.000E-05
     CRITERION FOR DISP.    CORRECTION WHEN THERE IS ZERO FLUX         1.000E-03
     CRITERION FOR RESIDUAL FORCE     FOR A LINEAR INCREMENT           1.000E-08
     FIELD CONVERSION RATIO                                             1.00    
     CRITERION FOR ZERO FORCE     REL. TO TIME AVRG. MAX. FORCE        1.000E-05
     CRITERION FOR ZERO DISP.    RELATIVE TO CHARACTERISTIC LENGTH     1.000E-08

 CONVERGENCE TOLERANCE PARAMETERS FOR MOMENT   
     CRITERION FOR RESIDUAL MOMENT    FOR A NONLINEAR PROBLEM          5.000E-03
     CRITERION FOR ROTATION CORRECTION IN A NONLINEAR PROBLEM          1.000E-02
     INITIAL VALUE OF TIME AVERAGE MOMENT                              1.000E-02
     AVERAGE MOMENT    IS TIME AVERAGE MOMENT   
     ALTERNATE CRIT. FOR RESIDUAL MOMENT    FOR A NONLINEAR PROBLEM    2.000E-02
     CRITERION FOR ZERO MOMENT    RELATIVE TO TIME AVRG. MOMENT        1.000E-05
     CRITERION FOR RESIDUAL MOMENT    WHEN THERE IS ZERO FLUX          1.000E-05
     CRITERION FOR ROTATION CORRECTION WHEN THERE IS ZERO FLUX         1.000E-03
     CRITERION FOR RESIDUAL MOMENT    FOR A LINEAR INCREMENT           1.000E-08
     FIELD CONVERSION RATIO                                             1.00    
     CRITERION FOR ZERO MOMENT    REL. TO TIME AVRG. MAX. MOMENT       1.000E-05

     VOLUMETRIC STRAIN COMPATIBILITY TOLERANCE FOR HYBRID SOLIDS       1.000E-05
     AXIAL STRAIN COMPATIBILITY TOLERANCE FOR HYBRID BEAMS             1.000E-05
     TRANS. SHEAR STRAIN COMPATIBILITY TOLERANCE FOR HYBRID BEAMS      1.000E-05
     SOFT CONTACT CONSTRAINT COMPATIBILITY TOLERANCE FOR P>P0          5.000E-03
     SOFT CONTACT CONSTRAINT COMPATIBILITY TOLERANCE FOR P=0.0         0.100    
     CONTACT FORCE ERROR TOLERANCE FOR CONVERT SDI=YES                 1.00    
     DISPLACEMENT COMPATIBILITY TOLERANCE FOR DCOUP ELEMENTS           1.000E-05
     ROTATION COMPATIBILITY TOLERANCE FOR DCOUP ELEMENTS               1.000E-05

 EQUILIBRIUM WILL BE CHECKED FOR SEVERE DISCONTINUITY ITERATIONS

 TIME INCREMENTATION CONTROL PARAMETERS:
     FIRST EQUILIBRIUM ITERATION FOR CONSECUTIVE DIVERGENCE CHECK              4
     EQUILIBRIUM ITERATION AT WHICH LOG. CONVERGENCE RATE CHECK BEGINS         8
     EQUILIBRIUM ITERATION AFTER WHICH ALTERNATE RESIDUAL IS USED              9
     MAXIMUM EQUILIBRIUM ITERATIONS ALLOWED                                   16
     EQUILIBRIUM ITERATION COUNT FOR CUT-BACK IN NEXT INCREMENT               10
     MAXIMUM EQUILIB. ITERS IN TWO INCREMENTS FOR TIME INCREMENT INCREASE      4
     MAXIMUM ITERATIONS FOR SEVERE DISCONTINUITIES                            50
     MAXIMUM ATTEMPTS ALLOWED IN AN INCREMENT                                  5
     MAXIMUM DISCON. ITERS IN TWO INCREMENTS FOR TIME INCREMENT INCREASE      50
     MAXIMUM CONTACT AUGMENTATIONS FOR *SURFACE BEHAVIOR,AUGMENTED LAGRANGE   50
     CUT-BACK FACTOR AFTER DIVERGENCE                                 0.2500    
     CUT-BACK FACTOR FOR TOO SLOW CONVERGENCE                         0.5000    
     CUT-BACK FACTOR AFTER TOO MANY EQUILIBRIUM ITERATIONS            0.7500    
     CUT-BACK FACTOR AFTER TOO MANY SEVERE DISCONTINUITY ITERATIONS   0.2500    
     CUT-BACK FACTOR AFTER PROBLEMS IN ELEMENT ASSEMBLY               0.2500    
     INCREASE FACTOR AFTER TWO INCREMENTS THAT CONVERGE QUICKLY        1.500    
     MAX. TIME INCREMENT INCREASE FACTOR ALLOWED                       1.500    
     MAX. TIME INCREMENT INCREASE FACTOR ALLOWED (DYNAMICS)            1.250    
     MAX. TIME INCREMENT INCREASE FACTOR ALLOWED (DIFFUSION)           2.000    
     MINIMUM TIME INCREMENT RATIO FOR EXTRAPOLATION TO OCCUR          0.1000    
     MAX. RATIO OF TIME INCREMENT TO STABILITY LIMIT                   1.000    
     FRACTION OF STABILITY LIMIT FOR NEW TIME INCREMENT               0.9500    
     TIME INCREMENT INCREASE FACTOR BEFORE A TIME POINT                1.000    

 CONTACT CONTROLS APPLIED TO ALL CONTACT PAIRS:
     GLOBAL STABILIZATION CONTROL IS NOT USED
     RELATIVE PENETRATION TOLERANCE FOR AUGMENTED LAGRANGE CONTACT:
          FINITE-SLIDING SURFACE-TO-SURFACE                            5.000E-02
          OTHERWISE                                                    1.000E-03

          PRINT OF INCREMENT NUMBER, TIME, ETC., EVERY    1  INCREMENTS

     THE MAXIMUM NUMBER OF INCREMENTS IN THIS STEP IS                     100

          UNSYMMETRIC MATRIX STORAGE AND SOLUTION WILL BE USED

     LINEAR EXTRAPOLATION WILL BE USED

     CHARACTERISTIC ELEMENT LENGTH      2.72    

     DETAILS REGARDING ACTUAL SOLUTION WAVEFRONT REQUESTED

     DETAILED OUTPUT OF DIAGNOSTICS TO DATABASE REQUESTED

     PRINT OF INCREMENT NUMBER, TIME, ETC., TO THE MESSAGE FILE EVERY     1  INCREMENTS

     COLLECTING MODEL CONSTRAINT INFORMATION FOR OVERCONSTRAINT CHECKS

     COLLECTING STEP CONSTRAINT INFORMATION FOR OVERCONSTRAINT CHECKS


  INCREMENT     1 STARTS. ATTEMPT NUMBER  1, TIME INCREMENT   1.00    

  NUMBER OF EQUATIONS =     30468     NUMBER OF RHS =    1
  NUMBER OF FLOATING PT. OPERATIONS =  1.06E+11

     CHECK POINT   START OF SOLVER    

     CHECK POINT  END OF SOLVER       

       ELAPSED USER TIME (SEC)      =   11.200    
       ELAPSED SYSTEM TIME (SEC)    =  0.10000    
       ELAPSED TOTAL CPU TIME (SEC) =   11.300    
       ELAPSED WALLCLOCK TIME (SEC) =         11
 

 ***WARNING: SOLVER PROBLEM. NUMERICAL SINGULARITY WHEN PROCESSING NODE 
             ASSEMBLY.1 D.O.F. 6 RATIO = 135.000E+12  .

                 1146 SEVERE DISCONTINUITIES OCCURRED DURING THIS ITERATION.
                 1146 POINTS CHANGED FROM CLOSED TO OPEN

               CONVERGENCE CHECKS FOR SEVERE DISCONTINUITY ITERATION     1

   MAX. PENETRATION ERROR 32.6720E-06  AT NODE BATTERY-1.763 OF CONTACT PAIR 
   (ASSEMBLY_BATTERY-1_BATBOT,ASSEMBLY_CF-1_CFTOP)
   MAX. CONTACT FORCE ERROR -1.45526     AT NODE BATTERY-1.2774 OF CONTACT PAIR 
   (ASSEMBLY_BATTERY-1_BATTOP,ASSEMBLY_CF-2_CFBOT)
          THE ESTIMATED CONTACT FORCE ERROR IS OUTSIDE OF CONVERGENCE TOLERANCES.

 AVERAGE FORCE                      0.179       TIME AVG. FORCE       0.179    
 LARGEST RESIDUAL FORCE             -7.05       AT NODE          1   DOF  3
   INSTANCE:                                                                                 
 LARGEST INCREMENT OF DISP.        -0.136       AT NODE        578   DOF  3
   INSTANCE: POLYMER-1                                                                       
 LARGEST CORRECTION TO DISP.       -0.136       AT NODE        578   DOF  3
   INSTANCE: POLYMER-1                                                                       
          FORCE     EQUILIBRIUM NOT ACHIEVED WITHIN TOLERANCE.

 AVERAGE MOMENT                     5.500E-02   TIME AVG. MOMENT      5.500E-02
 LARGEST RESIDUAL MOMENT             75.5       AT NODE          1   DOF  6
   INSTANCE:                                                                                 
 LARGEST INCREMENT OF ROTATION     -4.439E-03   AT NODE          8   DOF  5
   INSTANCE: CF-1                                                                            
 LARGEST CORRECTION TO ROTATION    -4.439E-03   AT NODE          8   DOF  5
   INSTANCE: CF-1                                                                            
          MOMENT    EQUILIBRIUM NOT ACHIEVED WITHIN TOLERANCE.

  NUMBER OF EQUATIONS =     30468     NUMBER OF RHS =    1
  NUMBER OF FLOATING PT. OPERATIONS =  1.00E+11

     CHECK POINT   START OF SOLVER    

     CHECK POINT  END OF SOLVER       

       ELAPSED USER TIME (SEC)      =   10.500    
       ELAPSED SYSTEM TIME (SEC)    =   0.0000    
       ELAPSED TOTAL CPU TIME (SEC) =   10.500    
       ELAPSED WALLCLOCK TIME (SEC) =         10
 

 ***WARNING: SOLVER PROBLEM. NUMERICAL SINGULARITY WHEN PROCESSING NODE 
             ASSEMBLY.1 D.O.F. 6 RATIO = 134.677E+09  .

                 1692 SEVERE DISCONTINUITIES OCCURRED DURING THIS ITERATION.
                  540 POINTS CHANGED FROM OPEN TO CLOSED
                  643 POINTS CHANGED FROM CLOSED TO OPEN
                  509 POINTS CHANGED FROM STICKING TO SLIPPING

               CONVERGENCE CHECKS FOR SEVERE DISCONTINUITY ITERATION     2

   MAX. PENETRATION ERROR 2.88161E-03 AT NODE BATTERY-1.2640 OF CONTACT PAIR 
   (ASSEMBLY_BATTERY-1_BATTOP,ASSEMBLY_CF-2_CFBOT)
   MAX. CONTACT FORCE ERROR 2.41567     AT NODE BATTERY-1.391 OF CONTACT PAIR 
   (ASSEMBLY_BATTERY-1_BATBOT,ASSEMBLY_CF-1_CFTOP)
          THE ESTIMATED CONTACT FORCE ERROR IS OUTSIDE OF CONVERGENCE TOLERANCES.

 AVERAGE FORCE                      0.209       TIME AVG. FORCE       0.209    
 LARGEST RESIDUAL FORCE              13.2       AT NODE          1   DOF  3
   INSTANCE:                                                                                 
 LARGEST INCREMENT OF DISP.          1.37       AT NODE          7   DOF  1
   INSTANCE: CF-1                                                                            
 LARGEST CORRECTION TO DISP.         1.36       AT NODE          7   DOF  1
   INSTANCE: CF-1                                                                            
          FORCE     EQUILIBRIUM NOT ACHIEVED WITHIN TOLERANCE.

 AVERAGE MOMENT                     0.136       TIME AVG. MOMENT      0.136    
 LARGEST RESIDUAL MOMENT            -20.5       AT NODE          1   DOF  4
   INSTANCE:                                                                                 
 LARGEST INCREMENT OF ROTATION      1.259E-02   AT NODE         66   DOF  6
   INSTANCE: CF-1                                                                            
 LARGEST CORRECTION TO ROTATION     1.258E-02   AT NODE         94   DOF  6
   INSTANCE: CF-2                                                                            
          MOMENT    EQUILIBRIUM NOT ACHIEVED WITHIN TOLERANCE.

  NUMBER OF EQUATIONS =     30468     NUMBER OF RHS =    1
  NUMBER OF FLOATING PT. OPERATIONS =  9.63E+10

     CHECK POINT   START OF SOLVER    

     CHECK POINT  END OF SOLVER       

       ELAPSED USER TIME (SEC)      =   10.200    
       ELAPSED SYSTEM TIME (SEC)    =  0.10000    
       ELAPSED TOTAL CPU TIME (SEC) =   10.300    
       ELAPSED WALLCLOCK TIME (SEC) =         10
 

 ***WARNING: SOLVER PROBLEM. NUMERICAL SINGULARITY WHEN PROCESSING NODE 
             ASSEMBLY.1 D.O.F. 6 RATIO = 9.18429E+09.

                  894 SEVERE DISCONTINUITIES OCCURRED DURING THIS ITERATION.
                  225 POINTS CHANGED FROM OPEN TO CLOSED
                  494 POINTS CHANGED FROM CLOSED TO OPEN
                   19 POINTS CHANGED FROM SLIPPING TO STICKING
                  156 POINTS CHANGED FROM STICKING TO SLIPPING

               CONVERGENCE CHECKS FOR SEVERE DISCONTINUITY ITERATION     3

   MAX. PENETRATION ERROR 503.394E-06   AT NODE BATTERY-1.3810 OF CONTACT PAIR 
   (ASSEMBLY_BATTERY-1_BATTOP,ASSEMBLY_CF-2_CFBOT)
   MAX. CONTACT FORCE ERROR -1.49204     AT NODE BATTERY-1.3082 OF CONTACT PAIR 
   (ASSEMBLY_BATTERY-1_BATTOP,ASSEMBLY_CF-2_CFBOT)
          THE ESTIMATED CONTACT FORCE ERROR IS OUTSIDE OF CONVERGENCE TOLERANCES.

 AVERAGE FORCE                      0.210       TIME AVG. FORCE       0.210    
 LARGEST RESIDUAL FORCE              2.87       AT NODE          1   DOF  3
   INSTANCE:                                                                                 
 LARGEST INCREMENT OF DISP.        -0.237       AT NODE       2220   DOF  3
   INSTANCE: BATTERY-1                                                                       
 LARGEST CORRECTION TO DISP.         1.55       AT NODE         94   DOF  2
   INSTANCE: CF-1                                                                            
          FORCE     EQUILIBRIUM NOT ACHIEVED WITHIN TOLERANCE.

 AVERAGE MOMENT                     0.146       TIME AVG. MOMENT      0.146    
 LARGEST RESIDUAL MOMENT             7.31       AT NODE          1   DOF  4
   INSTANCE:                                                                                 
 LARGEST INCREMENT OF ROTATION      8.645E-03   AT NODE        601   DOF  5
   INSTANCE: CF-2                                                                            
 LARGEST CORRECTION TO ROTATION    -1.409E-02   AT NODE        687   DOF  6
   INSTANCE: CF-2                                                                            
          MOMENT    EQUILIBRIUM NOT ACHIEVED WITHIN TOLERANCE.

  NUMBER OF EQUATIONS =     30468     NUMBER OF RHS =    1
  NUMBER OF FLOATING PT. OPERATIONS =  9.16E+10

     CHECK POINT   START OF SOLVER    

     CHECK POINT  END OF SOLVER       

       ELAPSED USER TIME (SEC)      =   9.7000    
       ELAPSED SYSTEM TIME (SEC)    =   0.0000    
       ELAPSED TOTAL CPU TIME (SEC) =   9.7000    
       ELAPSED WALLCLOCK TIME (SEC) =         10
 

 ***WARNING: SOLVER PROBLEM. NUMERICAL SINGULARITY WHEN PROCESSING NODE 
             ASSEMBLY.1 D.O.F. 6 RATIO = 8.05534E+09.

                  544 SEVERE DISCONTINUITIES OCCURRED DURING THIS ITERATION.
                  118 POINTS CHANGED FROM OPEN TO CLOSED
                  317 POINTS CHANGED FROM CLOSED TO OPEN
                  109 POINTS CHANGED FROM STICKING TO SLIPPING

               CONVERGENCE CHECKS FOR SEVERE DISCONTINUITY ITERATION     4

   MAX. PENETRATION ERROR 442.313E-06   AT NODE BATTERY-1.3277 OF CONTACT PAIR 
   (ASSEMBLY_BATTERY-1_BATTOP,ASSEMBLY_CF-2_CFBOT)
   MAX. CONTACT FORCE ERROR -1.18876     AT NODE BATTERY-1.3201 OF CONTACT PAIR 
   (ASSEMBLY_BATTERY-1_BATTOP,ASSEMBLY_CF-2_CFBOT)
          THE ESTIMATED CONTACT FORCE ERROR IS OUTSIDE OF CONVERGENCE TOLERANCES.

 AVERAGE FORCE                      0.209       TIME AVG. FORCE       0.209    
 LARGEST RESIDUAL FORCE            -0.688       AT NODE       3201   DOF  3
   INSTANCE: BATTERY-1                                                                       
 LARGEST INCREMENT OF DISP.        -0.238       AT NODE       2220   DOF  3
   INSTANCE: BATTERY-1                                                                       
 LARGEST CORRECTION TO DISP.        0.137       AT NODE        167   DOF  1
   INSTANCE: CF-1                                                                            
          FORCE     EQUILIBRIUM NOT ACHIEVED WITHIN TOLERANCE.

 AVERAGE MOMENT                     0.148       TIME AVG. MOMENT      0.148    
 LARGEST RESIDUAL MOMENT             2.22       AT NODE          1   DOF  4
   INSTANCE:                                                                                 
 LARGEST INCREMENT OF ROTATION      8.869E-03   AT NODE        600   DOF  5
   INSTANCE: CF-2                                                                            
 LARGEST CORRECTION TO ROTATION     1.248E-03   AT NODE         93   DOF  6
   INSTANCE: CF-2                                                                            
          MOMENT    EQUILIBRIUM NOT ACHIEVED WITHIN TOLERANCE.

  NUMBER OF EQUATIONS =     30468     NUMBER OF RHS =    1
  NUMBER OF FLOATING PT. OPERATIONS =  8.39E+10

     CHECK POINT   START OF SOLVER    

     CHECK POINT  END OF SOLVER       

       ELAPSED USER TIME (SEC)      =   8.9000    
       ELAPSED SYSTEM TIME (SEC)    =   0.0000    
       ELAPSED TOTAL CPU TIME (SEC) =   8.9000    
       ELAPSED WALLCLOCK TIME (SEC) =          9
 

 ***WARNING: SOLVER PROBLEM. NUMERICAL SINGULARITY WHEN PROCESSING NODE 
             ASSEMBLY.1 D.O.F. 6 RATIO = 8.83473E+09.

                  425 SEVERE DISCONTINUITIES OCCURRED DURING THIS ITERATION.
                  134 POINTS CHANGED FROM OPEN TO CLOSED
                  189 POINTS CHANGED FROM CLOSED TO OPEN
                  102 POINTS CHANGED FROM STICKING TO SLIPPING

               CONVERGENCE CHECKS FOR SEVERE DISCONTINUITY ITERATION     5

   MAX. PENETRATION ERROR 551.085E-06   AT NODE BATTERY-1.3771 OF CONTACT PAIR 
   (ASSEMBLY_BATTERY-1_BATTOP,ASSEMBLY_CF-2_CFBOT)
   MAX. CONTACT FORCE ERROR -792.783E-03   AT NODE BATTERY-1.3343 OF CONTACT 
   PAIR (ASSEMBLY_BATTERY-1_BATTOP,ASSEMBLY_CF-2_CFBOT)
          THE ESTIMATED CONTACT FORCE ERROR IS OUTSIDE OF CONVERGENCE TOLERANCES.

 AVERAGE FORCE                      0.209       TIME AVG. FORCE       0.209    
 LARGEST RESIDUAL FORCE            -0.469       AT NODE       3400   DOF  3
   INSTANCE: BATTERY-1                                                                       
 LARGEST INCREMENT OF DISP.        -0.239       AT NODE       2220   DOF  3
   INSTANCE: BATTERY-1                                                                       
 LARGEST CORRECTION TO DISP.        8.150E-02   AT NODE         98   DOF  1
   INSTANCE: CF-2                                                                            
          FORCE     EQUILIBRIUM NOT ACHIEVED WITHIN TOLERANCE.

 AVERAGE MOMENT                     0.150       TIME AVG. MOMENT      0.150    
 LARGEST RESIDUAL MOMENT           -7.428E-02   AT NODE          1   DOF  4
   INSTANCE:                                                                                 
 LARGEST INCREMENT OF ROTATION      8.934E-03   AT NODE        601   DOF  5
   INSTANCE: CF-2                                                                            
 LARGEST CORRECTION TO ROTATION     7.424E-04   AT NODE       1128   DOF  6
   INSTANCE: CF-2                                                                            
          MOMENT    EQUILIBRIUM NOT ACHIEVED WITHIN TOLERANCE.

  NUMBER OF EQUATIONS =     30468     NUMBER OF RHS =    1
  NUMBER OF FLOATING PT. OPERATIONS =  8.29E+10

     CHECK POINT   START OF SOLVER    

     CHECK POINT  END OF SOLVER       

       ELAPSED USER TIME (SEC)      =   8.8000    
       ELAPSED SYSTEM TIME (SEC)    =   0.0000    
       ELAPSED TOTAL CPU TIME (SEC) =   8.8000    
       ELAPSED WALLCLOCK TIME (SEC) =          9
 

 ***WARNING: SOLVER PROBLEM. NUMERICAL SINGULARITY WHEN PROCESSING NODE 
             ASSEMBLY.1 D.O.F. 6 RATIO = 9.69666E+09.

                  446 SEVERE DISCONTINUITIES OCCURRED DURING THIS ITERATION.
                  184 POINTS CHANGED FROM OPEN TO CLOSED
                  157 POINTS CHANGED FROM CLOSED TO OPEN
                  105 POINTS CHANGED FROM STICKING TO SLIPPING

               CONVERGENCE CHECKS FOR SEVERE DISCONTINUITY ITERATION     6

   MAX. PENETRATION ERROR 588.465E-06   AT NODE BATTERY-1.3513 OF CONTACT PAIR 
   (ASSEMBLY_BATTERY-1_BATTOP,ASSEMBLY_CF-2_CFBOT)
   MAX. CONTACT FORCE ERROR -714.512E-03   AT NODE BATTERY-1.3437 OF CONTACT 
   PAIR (ASSEMBLY_BATTERY-1_BATTOP,ASSEMBLY_CF-2_CFBOT)
          THE ESTIMATED CONTACT FORCE ERROR IS OUTSIDE OF CONVERGENCE TOLERANCES.

 AVERAGE FORCE                      0.209       TIME AVG. FORCE       0.209    
 LARGEST RESIDUAL FORCE             0.465       AT NODE       1138   DOF  3
   INSTANCE: CF-2                                                                            
 LARGEST INCREMENT OF DISP.        -0.240       AT NODE       2220   DOF  3
   INSTANCE: BATTERY-1                                                                       
 LARGEST CORRECTION TO DISP.        3.153E-02   AT NODE         98   DOF  1
   INSTANCE: CF-2                                                                            
          FORCE     EQUILIBRIUM NOT ACHIEVED WITHIN TOLERANCE.

 AVERAGE MOMENT                     0.151       TIME AVG. MOMENT      0.151    
 LARGEST RESIDUAL MOMENT           -4.547E-02   AT NODE          1   DOF  4
   INSTANCE:                                                                                 
 LARGEST INCREMENT OF ROTATION      8.944E-03   AT NODE        564   DOF  5
   INSTANCE: CF-2                                                                            
 LARGEST CORRECTION TO ROTATION    -5.668E-04   AT NODE       1183   DOF  5
   INSTANCE: CF-2                                                                            
          MOMENT    EQUILIBRIUM NOT ACHIEVED WITHIN TOLERANCE.

  NUMBER OF EQUATIONS =     30468     NUMBER OF RHS =    1
  NUMBER OF FLOATING PT. OPERATIONS =  8.22E+10

     CHECK POINT   START OF SOLVER    

     CHECK POINT  END OF SOLVER       

       ELAPSED USER TIME (SEC)      =   8.7000    
       ELAPSED SYSTEM TIME (SEC)    =   0.0000    
       ELAPSED TOTAL CPU TIME (SEC) =   8.7000    
       ELAPSED WALLCLOCK TIME (SEC) =          9
 

 ***WARNING: SOLVER PROBLEM. NUMERICAL SINGULARITY WHEN PROCESSING NODE 
             ASSEMBLY.1 D.O.F. 6 RATIO = 10.1028E+09 .

                  303 SEVERE DISCONTINUITIES OCCURRED DURING THIS ITERATION.
                   98 POINTS CHANGED FROM OPEN TO CLOSED
                  170 POINTS CHANGED FROM CLOSED TO OPEN
                    1 POINTS CHANGED FROM SLIPPING TO STICKING
                   34 POINTS CHANGED FROM STICKING TO SLIPPING

               CONVERGENCE CHECKS FOR SEVERE DISCONTINUITY ITERATION     7

   MAX. PENETRATION ERROR 438.228E-06   AT NODE BATTERY-1.3542 OF CONTACT PAIR 
   (ASSEMBLY_BATTERY-1_BATTOP,ASSEMBLY_CF-2_CFBOT)
   MAX. CONTACT FORCE ERROR -1.01706     AT NODE BATTERY-1.3460 OF CONTACT PAIR 
   (ASSEMBLY_BATTERY-1_BATTOP,ASSEMBLY_CF-2_CFBOT)
          THE ESTIMATED CONTACT FORCE ERROR IS OUTSIDE OF CONVERGENCE TOLERANCES.

 AVERAGE FORCE                      0.209       TIME AVG. FORCE       0.209    
 LARGEST RESIDUAL FORCE            -0.583       AT NODE       3460   DOF  3
   INSTANCE: BATTERY-1                                                                       
 LARGEST INCREMENT OF DISP.        -0.240       AT NODE       2220   DOF  3
   INSTANCE: BATTERY-1                                                                       
 LARGEST CORRECTION TO DISP.        8.297E-03   AT NODE         94   DOF  2
   INSTANCE: CF-1                                                                            
          FORCE     EQUILIBRIUM NOT ACHIEVED WITHIN TOLERANCE.

 AVERAGE MOMENT                     0.151       TIME AVG. MOMENT      0.151    
 LARGEST RESIDUAL MOMENT            8.910E-03   AT NODE        385   DOF  5
   INSTANCE: CF-2                                                                            
 LARGEST INCREMENT OF ROTATION      8.825E-03   AT NODE        564   DOF  5
   INSTANCE: CF-2                                                                            
 LARGEST CORRECTION TO ROTATION     6.957E-04   AT NODE        457   DOF  5
   INSTANCE: CF-2                                                                            
          MOMENT    EQUILIBRIUM NOT ACHIEVED WITHIN TOLERANCE.

  NUMBER OF EQUATIONS =     30468     NUMBER OF RHS =    1
  NUMBER OF FLOATING PT. OPERATIONS =  8.01E+10

     CHECK POINT   START OF SOLVER    

     CHECK POINT  END OF SOLVER       

       ELAPSED USER TIME (SEC)      =   8.5000    
       ELAPSED SYSTEM TIME (SEC)    =  0.10000    
       ELAPSED TOTAL CPU TIME (SEC) =   8.6000    
       ELAPSED WALLCLOCK TIME (SEC) =          8
 

 ***WARNING: SOLVER PROBLEM. NUMERICAL SINGULARITY WHEN PROCESSING NODE 
             ASSEMBLY.1 D.O.F. 6 RATIO = 10.3840E+09 .

                  226 SEVERE DISCONTINUITIES OCCURRED DURING THIS ITERATION.
                   86 POINTS CHANGED FROM OPEN TO CLOSED
                  124 POINTS CHANGED FROM CLOSED TO OPEN
                   16 POINTS CHANGED FROM STICKING TO SLIPPING

               CONVERGENCE CHECKS FOR SEVERE DISCONTINUITY ITERATION     8

   MAX. PENETRATION ERROR 282.886E-06   AT NODE BATTERY-1.3657 OF CONTACT PAIR 
   (ASSEMBLY_BATTERY-1_BATTOP,ASSEMBLY_CF-2_CFBOT)
   MAX. CONTACT FORCE ERROR -963.933E-03   AT NODE BATTERY-1.3567 OF CONTACT 
   PAIR (ASSEMBLY_BATTERY-1_BATTOP,ASSEMBLY_CF-2_CFBOT)
          THE ESTIMATED CONTACT FORCE ERROR IS OUTSIDE OF CONVERGENCE TOLERANCES.

 AVERAGE FORCE                      0.209       TIME AVG. FORCE       0.209    
 LARGEST RESIDUAL FORCE             0.567       AT NODE        454   DOF  3
   INSTANCE: CF-2                                                                            
 LARGEST INCREMENT OF DISP.        -0.240       AT NODE       2220   DOF  3
   INSTANCE: BATTERY-1                                                                       
 LARGEST CORRECTION TO DISP.        7.351E-02   AT NODE        169   DOF  1
   INSTANCE: CF-1                                                                            
          FORCE     EQUILIBRIUM NOT ACHIEVED WITHIN TOLERANCE.

 AVERAGE MOMENT                     0.151       TIME AVG. MOMENT      0.151    
 LARGEST RESIDUAL MOMENT           -1.491E-03   AT NODE       1045   DOF  5
   INSTANCE: CF-2                                                                            
 LARGEST INCREMENT OF ROTATION      8.666E-03   AT NODE        564   DOF  5
   INSTANCE: CF-2                                                                            
 LARGEST CORRECTION TO ROTATION     6.698E-04   AT NODE        460   DOF  6
   INSTANCE: CF-2                                                                            
          MOMENT    EQUILIBRIUM NOT ACHIEVED WITHIN TOLERANCE.

  NUMBER OF EQUATIONS =     30468     NUMBER OF RHS =    1
  NUMBER OF FLOATING PT. OPERATIONS =  7.89E+10

     CHECK POINT   START OF SOLVER    

     CHECK POINT  END OF SOLVER       

       ELAPSED USER TIME (SEC)      =   8.4000    
       ELAPSED SYSTEM TIME (SEC)    =   0.0000    
       ELAPSED TOTAL CPU TIME (SEC) =   8.4000    
       ELAPSED WALLCLOCK TIME (SEC) =          8
 

 ***WARNING: SOLVER PROBLEM. NUMERICAL SINGULARITY WHEN PROCESSING NODE 
             ASSEMBLY.1 D.O.F. 6 RATIO = 10.9296E+09 .

                  219 SEVERE DISCONTINUITIES OCCURRED DURING THIS ITERATION.
                   90 POINTS CHANGED FROM OPEN TO CLOSED
                  117 POINTS CHANGED FROM CLOSED TO OPEN
                   12 POINTS CHANGED FROM STICKING TO SLIPPING

               CONVERGENCE CHECKS FOR SEVERE DISCONTINUITY ITERATION     9

   MAX. PENETRATION ERROR 287.553E-06   AT NODE BATTERY-1.3252 OF CONTACT PAIR 
   (ASSEMBLY_BATTERY-1_BATTOP,ASSEMBLY_CF-2_CFBOT)
   MAX. CONTACT FORCE ERROR -792.405E-03   AT NODE BATTERY-1.3020 OF CONTACT 
   PAIR (ASSEMBLY_BATTERY-1_BATTOP,ASSEMBLY_CF-2_CFBOT)
          THE ESTIMATED CONTACT FORCE ERROR IS OUTSIDE OF CONVERGENCE TOLERANCES.

 AVERAGE FORCE                      0.209       TIME AVG. FORCE       0.209    
 LARGEST RESIDUAL FORCE             0.463       AT NODE       1061   DOF  3
   INSTANCE: CF-2                                                                            
 LARGEST INCREMENT OF DISP.        -0.240       AT NODE       2220   DOF  3
   INSTANCE: BATTERY-1                                                                       
 LARGEST CORRECTION TO DISP.        5.873E-02   AT NODE         94   DOF  2
   INSTANCE: CF-1                                                                            
          FORCE     EQUILIBRIUM NOT ACHIEVED WITHIN TOLERANCE.

 AVERAGE MOMENT                     0.151       TIME AVG. MOMENT      0.151    
 LARGEST RESIDUAL MOMENT            5.226E-03   AT NODE        350   DOF  5
   INSTANCE: CF-2                                                                            
 LARGEST INCREMENT OF ROTATION      8.593E-03   AT NODE        529   DOF  5
   INSTANCE: CF-2                                                                            
 LARGEST CORRECTION TO ROTATION     6.417E-04   AT NODE        418   DOF  5
   INSTANCE: CF-2                                                                            
          MOMENT    EQUILIBRIUM NOT ACHIEVED WITHIN TOLERANCE.

  NUMBER OF EQUATIONS =     30468     NUMBER OF RHS =    1
  NUMBER OF FLOATING PT. OPERATIONS =  7.68E+10

     CHECK POINT   START OF SOLVER    

     CHECK POINT  END OF SOLVER       

       ELAPSED USER TIME (SEC)      =   8.2000    
       ELAPSED SYSTEM TIME (SEC)    =   0.0000    
       ELAPSED TOTAL CPU TIME (SEC) =   8.2000    
       ELAPSED WALLCLOCK TIME (SEC) =          8
 

 ***WARNING: SOLVER PROBLEM. NUMERICAL SINGULARITY WHEN PROCESSING NODE 
             ASSEMBLY.1 D.O.F. 6 RATIO = 11.3186E+09 .

                  180 SEVERE DISCONTINUITIES OCCURRED DURING THIS ITERATION.
                   62 POINTS CHANGED FROM OPEN TO CLOSED
                  113 POINTS CHANGED FROM CLOSED TO OPEN
                    5 POINTS CHANGED FROM STICKING TO SLIPPING

               CONVERGENCE CHECKS FOR SEVERE DISCONTINUITY ITERATION    10

   MAX. PENETRATION ERROR 356.334E-06   AT NODE BATTERY-1.3132 OF CONTACT PAIR 
   (ASSEMBLY_BATTERY-1_BATTOP,ASSEMBLY_CF-2_CFBOT)
   MAX. CONTACT FORCE ERROR -936.838E-03   AT NODE BATTERY-1.3595 OF CONTACT 
   PAIR (ASSEMBLY_BATTERY-1_BATTOP,ASSEMBLY_CF-2_CFBOT)
          THE ESTIMATED CONTACT FORCE ERROR IS OUTSIDE OF CONVERGENCE TOLERANCES.

 AVERAGE FORCE                      0.209       TIME AVG. FORCE       0.209    
 LARGEST RESIDUAL FORCE            -0.556       AT NODE       3595   DOF  3
   INSTANCE: BATTERY-1                                                                       
 LARGEST INCREMENT OF DISP.        -0.241       AT NODE       2220   DOF  3
   INSTANCE: BATTERY-1                                                                       
 LARGEST CORRECTION TO DISP.       -2.262E-02   AT NODE          4   DOF  1
   INSTANCE: CF-1                                                                            
          FORCE     EQUILIBRIUM NOT ACHIEVED WITHIN TOLERANCE.

 AVERAGE MOMENT                     0.151       TIME AVG. MOMENT      0.151    
 LARGEST RESIDUAL MOMENT            0.571       AT NODE          1   DOF  4
   INSTANCE:                                                                                 
 LARGEST INCREMENT OF ROTATION      8.625E-03   AT NODE        529   DOF  5
   INSTANCE: CF-2                                                                            
 LARGEST CORRECTION TO ROTATION    -5.546E-04   AT NODE       1061   DOF  5
   INSTANCE: CF-2                                                                            
          MOMENT    EQUILIBRIUM NOT ACHIEVED WITHIN TOLERANCE.

  NUMBER OF EQUATIONS =     30468     NUMBER OF RHS =    1
  NUMBER OF FLOATING PT. OPERATIONS =  7.51E+10

     CHECK POINT   START OF SOLVER    

     CHECK POINT  END OF SOLVER       

       ELAPSED USER TIME (SEC)      =   8.0000    
       ELAPSED SYSTEM TIME (SEC)    =   0.0000    
       ELAPSED TOTAL CPU TIME (SEC) =   8.0000    
       ELAPSED WALLCLOCK TIME (SEC) =          8
 

 ***WARNING: SOLVER PROBLEM. NUMERICAL SINGULARITY WHEN PROCESSING NODE 
             ASSEMBLY.1 D.O.F. 6 RATIO = 11.6601E+09 .

                  157 SEVERE DISCONTINUITIES OCCURRED DURING THIS ITERATION.
                   58 POINTS CHANGED FROM OPEN TO CLOSED
                   93 POINTS CHANGED FROM CLOSED TO OPEN
                    6 POINTS CHANGED FROM STICKING TO SLIPPING

               CONVERGENCE CHECKS FOR SEVERE DISCONTINUITY ITERATION    11

   MAX. PENETRATION ERROR 230.594E-06   AT NODE BATTERY-1.3223 OF CONTACT PAIR 
   (ASSEMBLY_BATTERY-1_BATTOP,ASSEMBLY_CF-2_CFBOT)
   MAX. CONTACT FORCE ERROR -660.346E-03   AT NODE BATTERY-1.3373 OF CONTACT 
   PAIR (ASSEMBLY_BATTERY-1_BATTOP,ASSEMBLY_CF-2_CFBOT)
          THE ESTIMATED CONTACT FORCE ERROR IS OUTSIDE OF CONVERGENCE TOLERANCES.

 AVERAGE FORCE                      0.209       TIME AVG. FORCE       0.209    
 LARGEST RESIDUAL FORCE             0.455       AT NODE        344   DOF  3
   INSTANCE: CF-2                                                                            
 LARGEST INCREMENT OF DISP.        -0.241       AT NODE       2366   DOF  3
   INSTANCE: BATTERY-1                                                                       
 LARGEST CORRECTION TO DISP.        1.517E-02   AT NODE        169   DOF  1
   INSTANCE: CF-1                                                                            
          FORCE     EQUILIBRIUM NOT ACHIEVED WITHIN TOLERANCE.

 AVERAGE MOMENT                     0.151       TIME AVG. MOMENT      0.151    
 LARGEST RESIDUAL MOMENT           -0.415       AT NODE          1   DOF  4
   INSTANCE:                                                                                 
 LARGEST INCREMENT OF ROTATION      8.672E-03   AT NODE        529   DOF  5
   INSTANCE: CF-2                                                                            
 LARGEST CORRECTION TO ROTATION     6.381E-04   AT NODE        390   DOF  5
   INSTANCE: CF-2                                                                            
          MOMENT    EQUILIBRIUM NOT ACHIEVED WITHIN TOLERANCE.

  NUMBER OF EQUATIONS =     30468     NUMBER OF RHS =    1
  NUMBER OF FLOATING PT. OPERATIONS =  7.52E+10

     CHECK POINT   START OF SOLVER    

     CHECK POINT  END OF SOLVER       

       ELAPSED USER TIME (SEC)      =   8.0000    
       ELAPSED SYSTEM TIME (SEC)    =  0.10000    
       ELAPSED TOTAL CPU TIME (SEC) =   8.1000    
       ELAPSED WALLCLOCK TIME (SEC) =          8
 

 ***WARNING: SOLVER PROBLEM. NUMERICAL SINGULARITY WHEN PROCESSING NODE 
             ASSEMBLY.1 D.O.F. 6 RATIO = 11.9801E+09 .

                  125 SEVERE DISCONTINUITIES OCCURRED DURING THIS ITERATION.
                   32 POINTS CHANGED FROM OPEN TO CLOSED
                   93 POINTS CHANGED FROM CLOSED TO OPEN

               CONVERGENCE CHECKS FOR SEVERE DISCONTINUITY ITERATION    12

   MAX. PENETRATION ERROR 99.2031E-06  AT NODE BATTERY-1.1062 OF CONTACT PAIR 
   (ASSEMBLY_BATTERY-1_BATBOT,ASSEMBLY_CF-1_CFTOP)
   MAX. CONTACT FORCE ERROR -707.378E-03   AT NODE BATTERY-1.3035 OF CONTACT 
   PAIR (ASSEMBLY_BATTERY-1_BATTOP,ASSEMBLY_CF-2_CFBOT)
          THE ESTIMATED CONTACT FORCE ERROR IS OUTSIDE OF CONVERGENCE TOLERANCES.

 AVERAGE FORCE                      0.209       TIME AVG. FORCE       0.209    
 LARGEST RESIDUAL FORCE             0.424       AT NODE        965   DOF  3
   INSTANCE: CF-2                                                                            
 LARGEST INCREMENT OF DISP.        -0.241       AT NODE       2220   DOF  3
   INSTANCE: BATTERY-1                                                                       
 LARGEST CORRECTION TO DISP.        3.640E-03   AT NODE        450   DOF  3
   INSTANCE: CF-2                                                                            
          FORCE     EQUILIBRIUM NOT ACHIEVED WITHIN TOLERANCE.

 AVERAGE MOMENT                     0.151       TIME AVG. MOMENT      0.151    
 LARGEST RESIDUAL MOMENT           -8.681E-02   AT NODE          1   DOF  4
   INSTANCE:                                                                                 
 LARGEST INCREMENT OF ROTATION      8.698E-03   AT NODE        529   DOF  5
   INSTANCE: CF-2                                                                            
 LARGEST CORRECTION TO ROTATION     5.223E-04   AT NODE        344   DOF  5
   INSTANCE: CF-2                                                                            
          MOMENT    EQUILIBRIUM NOT ACHIEVED WITHIN TOLERANCE.

  NUMBER OF EQUATIONS =     30468     NUMBER OF RHS =    1
  NUMBER OF FLOATING PT. OPERATIONS =  7.40E+10

     CHECK POINT   START OF SOLVER    

     CHECK POINT  END OF SOLVER       

       ELAPSED USER TIME (SEC)      =   7.8000    
       ELAPSED SYSTEM TIME (SEC)    =   0.0000    
       ELAPSED TOTAL CPU TIME (SEC) =   7.8000    
       ELAPSED WALLCLOCK TIME (SEC) =          8
 

 ***WARNING: SOLVER PROBLEM. NUMERICAL SINGULARITY WHEN PROCESSING NODE 
             ASSEMBLY.1 D.O.F. 6 RATIO = 12.1998E+09 .

                  121 SEVERE DISCONTINUITIES OCCURRED DURING THIS ITERATION.
                   45 POINTS CHANGED FROM OPEN TO CLOSED
                   74 POINTS CHANGED FROM CLOSED TO OPEN
                    2 POINTS CHANGED FROM STICKING TO SLIPPING

               CONVERGENCE CHECKS FOR SEVERE DISCONTINUITY ITERATION    13

   MAX. PENETRATION ERROR 272.297E-06   AT NODE BATTERY-1.3706 OF CONTACT PAIR 
   (ASSEMBLY_BATTERY-1_BATTOP,ASSEMBLY_CF-2_CFBOT)
   MAX. CONTACT FORCE ERROR -541.864E-03   AT NODE BATTERY-1.3682 OF CONTACT 
   PAIR (ASSEMBLY_BATTERY-1_BATTOP,ASSEMBLY_CF-2_CFBOT)
          THE ESTIMATED CONTACT FORCE ERROR IS OUTSIDE OF CONVERGENCE TOLERANCES.

 AVERAGE FORCE                      0.209       TIME AVG. FORCE       0.209    
 LARGEST RESIDUAL FORCE             0.387       AT NODE        959   DOF  3
   INSTANCE: CF-2                                                                            
 LARGEST INCREMENT OF DISP.        -0.241       AT NODE       2366   DOF  3
   INSTANCE: BATTERY-1                                                                       
 LARGEST CORRECTION TO DISP.        2.270E-02   AT NODE        169   DOF  1
   INSTANCE: CF-1                                                                            
          FORCE     EQUILIBRIUM NOT ACHIEVED WITHIN TOLERANCE.

 AVERAGE MOMENT                     0.151       TIME AVG. MOMENT      0.151    
 LARGEST RESIDUAL MOMENT            3.690E-02   AT NODE          1   DOF  4
   INSTANCE:                                                                                 
 LARGEST INCREMENT OF ROTATION      8.721E-03   AT NODE        529   DOF  5
   INSTANCE: CF-2                                                                            
 LARGEST CORRECTION TO ROTATION     5.050E-04   AT NODE        307   DOF  5
   INSTANCE: CF-2                                                                            
          MOMENT    EQUILIBRIUM NOT ACHIEVED WITHIN TOLERANCE.

  NUMBER OF EQUATIONS =     30468     NUMBER OF RHS =    1
  NUMBER OF FLOATING PT. OPERATIONS =  7.50E+10

     CHECK POINT   START OF SOLVER    

     CHECK POINT  END OF SOLVER       

       ELAPSED USER TIME (SEC)      =   8.0000    
       ELAPSED SYSTEM TIME (SEC)    =   0.0000    
       ELAPSED TOTAL CPU TIME (SEC) =   8.0000    
       ELAPSED WALLCLOCK TIME (SEC) =          8
 

 ***WARNING: SOLVER PROBLEM. NUMERICAL SINGULARITY WHEN PROCESSING NODE 
             ASSEMBLY.1 D.O.F. 6 RATIO = 12.4405E+09 .

                  103 SEVERE DISCONTINUITIES OCCURRED DURING THIS ITERATION.
                   41 POINTS CHANGED FROM OPEN TO CLOSED
                   48 POINTS CHANGED FROM CLOSED TO OPEN
                   14 POINTS CHANGED FROM STICKING TO SLIPPING

               CONVERGENCE CHECKS FOR SEVERE DISCONTINUITY ITERATION    14

   MAX. PENETRATION ERROR 164.798E-06   AT NODE BATTERY-1.1222 OF CONTACT PAIR 
   (ASSEMBLY_BATTERY-1_BATBOT,ASSEMBLY_CF-1_CFTOP)
   MAX. CONTACT FORCE ERROR -530.394E-03   AT NODE BATTERY-1.3644 OF CONTACT 
   PAIR (ASSEMBLY_BATTERY-1_BATTOP,ASSEMBLY_CF-2_CFBOT)
          THE ESTIMATED CONTACT FORCE ERROR IS OUTSIDE OF CONVERGENCE TOLERANCES.

 AVERAGE FORCE                      0.209       TIME AVG. FORCE       0.209    
 LARGEST RESIDUAL FORCE            -0.312       AT NODE       3644   DOF  3
   INSTANCE: BATTERY-1                                                                       
 LARGEST INCREMENT OF DISP.        -0.241       AT NODE       2220   DOF  3
   INSTANCE: BATTERY-1                                                                       
 LARGEST CORRECTION TO DISP.       -1.750E-02   AT NODE          7   DOF  1
   INSTANCE: CF-2                                                                            
          FORCE     EQUILIBRIUM NOT ACHIEVED WITHIN TOLERANCE.

 AVERAGE MOMENT                     0.150       TIME AVG. MOMENT      0.150    
 LARGEST RESIDUAL MOMENT            3.225E-02   AT NODE          1   DOF  4
   INSTANCE:                                                                                 
 LARGEST INCREMENT OF ROTATION      8.730E-03   AT NODE        529   DOF  5
   INSTANCE: CF-2                                                                            
 LARGEST CORRECTION TO ROTATION    -5.305E-04   AT NODE        959   DOF  5
   INSTANCE: CF-2                                                                            
          MOMENT    EQUILIBRIUM NOT ACHIEVED WITHIN TOLERANCE.

  NUMBER OF EQUATIONS =     30468     NUMBER OF RHS =    1
  NUMBER OF FLOATING PT. OPERATIONS =  7.43E+10

     CHECK POINT   START OF SOLVER    

     CHECK POINT  END OF SOLVER       

       ELAPSED USER TIME (SEC)      =   8.0000    
       ELAPSED SYSTEM TIME (SEC)    =   0.0000    
       ELAPSED TOTAL CPU TIME (SEC) =   8.0000    
       ELAPSED WALLCLOCK TIME (SEC) =          8
 

 ***WARNING: SOLVER PROBLEM. NUMERICAL SINGULARITY WHEN PROCESSING NODE 
             ASSEMBLY.1 D.O.F. 6 RATIO = 12.6245E+09 .

                   61 SEVERE DISCONTINUITIES OCCURRED DURING THIS ITERATION.
                   22 POINTS CHANGED FROM OPEN TO CLOSED
                   37 POINTS CHANGED FROM CLOSED TO OPEN
                    2 POINTS CHANGED FROM STICKING TO SLIPPING

               CONVERGENCE CHECKS FOR SEVERE DISCONTINUITY ITERATION    15

   MAX. PENETRATION ERROR 68.9199E-06  AT NODE BATTERY-1.1026 OF CONTACT PAIR 
   (ASSEMBLY_BATTERY-1_BATBOT,ASSEMBLY_CF-1_CFTOP)
   MAX. CONTACT FORCE ERROR -182.190E-03   AT NODE BATTERY-1.3611 OF CONTACT 
   PAIR (ASSEMBLY_BATTERY-1_BATTOP,ASSEMBLY_CF-2_CFBOT)
          THE CONTACT CONSTRAINT ERRORS ARE WITHIN THE TOLERANCES.

 AVERAGE FORCE                      0.209       TIME AVG. FORCE       0.209    
 LARGEST RESIDUAL FORCE            -0.103       AT NODE       3611   DOF  3
   INSTANCE: BATTERY-1                                                                       
 LARGEST INCREMENT OF DISP.        -0.241       AT NODE       2220   DOF  3
   INSTANCE: BATTERY-1                                                                       
 LARGEST CORRECTION TO DISP.        1.903E-02   AT NODE        169   DOF  1
   INSTANCE: CF-1                                                                            
          FORCE     EQUILIBRIUM NOT ACHIEVED WITHIN TOLERANCE.

 AVERAGE MOMENT                     0.150       TIME AVG. MOMENT      0.150    
 LARGEST RESIDUAL MOMENT            8.884E-03   AT NODE          1   DOF  4
   INSTANCE:                                                                                 
 LARGEST INCREMENT OF ROTATION      8.732E-03   AT NODE        529   DOF  5
   INSTANCE: CF-2                                                                            
 LARGEST CORRECTION TO ROTATION    -2.714E-04   AT NODE        923   DOF  5
   INSTANCE: CF-2                                                                            
          MOMENT    EQUILIBRIUM NOT ACHIEVED WITHIN TOLERANCE.

  NUMBER OF EQUATIONS =     30468     NUMBER OF RHS =    1
  NUMBER OF FLOATING PT. OPERATIONS =  7.44E+10

     CHECK POINT   START OF SOLVER    

     CHECK POINT  END OF SOLVER       

       ELAPSED USER TIME (SEC)      =   7.9000    
       ELAPSED SYSTEM TIME (SEC)    =  0.10000    
       ELAPSED TOTAL CPU TIME (SEC) =   8.0000    
       ELAPSED WALLCLOCK TIME (SEC) =          8
 

 ***WARNING: SOLVER PROBLEM. NUMERICAL SINGULARITY WHEN PROCESSING NODE 
             ASSEMBLY.1 D.O.F. 6 RATIO = 12.6934E+09 .

                   31 SEVERE DISCONTINUITIES OCCURRED DURING THIS ITERATION.
                    4 POINTS CHANGED FROM OPEN TO CLOSED
                   27 POINTS CHANGED FROM CLOSED TO OPEN

               CONVERGENCE CHECKS FOR SEVERE DISCONTINUITY ITERATION    16

   MAX. PENETRATION ERROR 8.28664E-06 AT NODE BATTERY-1.1108 OF CONTACT PAIR 
   (ASSEMBLY_BATTERY-1_BATBOT,ASSEMBLY_CF-1_CFTOP)
   MAX. CONTACT FORCE ERROR -42.7754E-03  AT NODE BATTERY-1.1033 OF CONTACT 
   PAIR (ASSEMBLY_BATTERY-1_BATBOT,ASSEMBLY_CF-1_CFTOP)
          THE CONTACT CONSTRAINT ERRORS ARE WITHIN THE TOLERANCES.

 AVERAGE FORCE                      0.209       TIME AVG. FORCE       0.209    
 LARGEST RESIDUAL FORCE            -2.433E-02   AT NODE        321   DOF  3
   INSTANCE: CF-1                                                                            
 LARGEST INCREMENT OF DISP.        -0.241       AT NODE       2220   DOF  3
   INSTANCE: BATTERY-1                                                                       
 LARGEST CORRECTION TO DISP.       -1.120E-02   AT NODE        100   DOF  1
   INSTANCE: CF-1                                                                            
          FORCE     EQUILIBRIUM NOT ACHIEVED WITHIN TOLERANCE.

 AVERAGE MOMENT                     0.150       TIME AVG. MOMENT      0.150    
 LARGEST RESIDUAL MOMENT            1.264E-02   AT NODE          1   DOF  4
   INSTANCE:                                                                                 
 LARGEST INCREMENT OF ROTATION      8.732E-03   AT NODE        529   DOF  5
   INSTANCE: CF-2                                                                            
 LARGEST CORRECTION TO ROTATION    -1.019E-04   AT NODE        924   DOF  6
   INSTANCE: CF-2                                                                            
          MOMENT    EQUILIBRIUM NOT ACHIEVED WITHIN TOLERANCE.

  NUMBER OF EQUATIONS =     30468     NUMBER OF RHS =    1
  NUMBER OF FLOATING PT. OPERATIONS =  7.40E+10

     CHECK POINT   START OF SOLVER    

     CHECK POINT  END OF SOLVER       

       ELAPSED USER TIME (SEC)      =   7.9000    
       ELAPSED SYSTEM TIME (SEC)    =   0.0000    
       ELAPSED TOTAL CPU TIME (SEC) =   7.9000    
       ELAPSED WALLCLOCK TIME (SEC) =          7
 

 ***WARNING: SOLVER PROBLEM. NUMERICAL SINGULARITY WHEN PROCESSING NODE 
             ASSEMBLY.1 D.O.F. 6 RATIO = 12.7290E+09 .

                    9 SEVERE DISCONTINUITIES OCCURRED DURING THIS ITERATION.
                    1 POINTS CHANGED FROM OPEN TO CLOSED
                    8 POINTS CHANGED FROM CLOSED TO OPEN

               CONVERGENCE CHECKS FOR SEVERE DISCONTINUITY ITERATION    17

   MAX. PENETRATION ERROR 2.34699E-06 AT NODE BATTERY-1.3823 OF CONTACT PAIR 
   (ASSEMBLY_BATTERY-1_BATTOP,ASSEMBLY_CF-2_CFBOT)
   MAX. CONTACT FORCE ERROR -14.6449E-03  AT NODE BATTERY-1.1068 OF CONTACT 
   PAIR (ASSEMBLY_BATTERY-1_BATBOT,ASSEMBLY_CF-1_CFTOP)
          THE CONTACT CONSTRAINT ERRORS ARE WITHIN THE TOLERANCES.

 AVERAGE FORCE                      0.209       TIME AVG. FORCE       0.209    
 LARGEST RESIDUAL FORCE            -8.349E-03   AT NODE        285   DOF  3
   INSTANCE: CF-1                                                                            
 LARGEST INCREMENT OF DISP.        -0.241       AT NODE       2220   DOF  3
   INSTANCE: BATTERY-1                                                                       
 LARGEST CORRECTION TO DISP.        9.395E-03   AT NODE        160   DOF  1
   INSTANCE: CF-1                                                                            
          FORCE     EQUILIBRIUM NOT ACHIEVED WITHIN TOLERANCE.

 AVERAGE MOMENT                     0.150       TIME AVG. MOMENT      0.150    
 LARGEST RESIDUAL MOMENT           -7.842E-05   AT NODE          1   DOF  6
   INSTANCE:                                                                                 
 LARGEST INCREMENT OF ROTATION      8.732E-03   AT NODE        529   DOF  5
   INSTANCE: CF-2                                                                            
 LARGEST CORRECTION TO ROTATION     8.548E-05   AT NODE       1032   DOF  6
   INSTANCE: CF-1                                                                            
          THE MOMENT    EQUILIBRIUM EQUATIONS HAVE CONVERGED

  NUMBER OF EQUATIONS =     30468     NUMBER OF RHS =    1
  NUMBER OF FLOATING PT. OPERATIONS =  7.38E+10

     CHECK POINT   START OF SOLVER    

     CHECK POINT  END OF SOLVER       

       ELAPSED USER TIME (SEC)      =   7.8000    
       ELAPSED SYSTEM TIME (SEC)    =   0.0000    
       ELAPSED TOTAL CPU TIME (SEC) =   7.8000    
       ELAPSED WALLCLOCK TIME (SEC) =          8
 

 ***WARNING: SOLVER PROBLEM. NUMERICAL SINGULARITY WHEN PROCESSING NODE 
             ASSEMBLY.1 D.O.F. 6 RATIO = 12.7490E+09 .

               CONVERGENCE CHECKS FOR EQUILIBRIUM ITERATION     1

   MAX. PENETRATION ERROR -14.9638E-12  AT NODE BATTERY-1.1076 OF CONTACT PAIR 
   (ASSEMBLY_BATTERY-1_BATBOT,ASSEMBLY_CF-1_CFTOP)
   MAX. CONTACT FORCE ERROR -15.5225E-09  AT NODE BATTERY-1.1089 OF CONTACT 
   PAIR (ASSEMBLY_BATTERY-1_BATBOT,ASSEMBLY_CF-1_CFTOP)
          THE CONTACT CONSTRAINTS HAVE CONVERGED.

 AVERAGE FORCE                      0.209       TIME AVG. FORCE       0.209    
 LARGEST RESIDUAL FORCE             1.007E-05   AT NODE        887   DOF  3
   INSTANCE: CF-2                                                                            
 LARGEST INCREMENT OF DISP.        -0.241       AT NODE       2220   DOF  3
   INSTANCE: BATTERY-1                                                                       
 LARGEST CORRECTION TO DISP.       -8.223E-03   AT NODE        152   DOF  1
   INSTANCE: CF-1                                                                            
 ESTIMATE OF DISP.    CORRECTION    5.655E-06
 FORCE     EQUILIB. ACCEPTED BASED ON SMALL RESIDUAL AND ESTIMATED CORRECTION

 AVERAGE MOMENT                     0.150       TIME AVG. MOMENT      0.150    
 LARGEST RESIDUAL MOMENT            2.366E-05   AT NODE          1   DOF  6
   INSTANCE:                                                                                 
 LARGEST INCREMENT OF ROTATION      8.732E-03   AT NODE        529   DOF  5
   INSTANCE: CF-2                                                                            
 LARGEST CORRECTION TO ROTATION    -7.477E-05   AT NODE        286   DOF  6
   INSTANCE: CF-1                                                                            
          THE MOMENT    EQUILIBRIUM EQUATIONS HAVE CONVERGED

 ITERATION SUMMARY FOR THE INCREMENT:  18 TOTAL ITERATIONS, OF WHICH
  17 ARE SEVERE DISCONTINUITY ITERATIONS AND  1 ARE EQUILIBRIUM ITERATIONS.

 TIME INCREMENT COMPLETED   1.00    ,  FRACTION OF STEP COMPLETED   1.00    
 STEP TIME COMPLETED        1.00    ,  TOTAL TIME COMPLETED         1.00    


          THE ANALYSIS HAS BEEN COMPLETED



     ANALYSIS SUMMARY:
     TOTAL OF          1  INCREMENTS
                       0  CUTBACKS IN AUTOMATIC INCREMENTATION
                      18  ITERATIONS INCLUDING CONTACT ITERATIONS IF PRESENT
                      18  PASSES THROUGH THE EQUATION SOLVER OF WHICH 
                      18  INVOLVE MATRIX DECOMPOSITION, INCLUDING
                       0  DECOMPOSITION(S) OF THE MASS MATRIX
                       1  REORDERING OF EQUATIONS TO MINIMIZE WAVEFRONT
                       0  ADDITIONAL RESIDUAL EVALUATIONS FOR LINE SEARCHES
                       0  ADDITIONAL OPERATOR EVALUATIONS FOR LINE SEARCHES
                       0  WARNING MESSAGES DURING USER INPUT PROCESSING
                      18  WARNING MESSAGES DURING ANALYSIS
                      18  ANALYSIS WARNINGS ARE NUMERICAL PROBLEM MESSAGES
                       0  ANALYSIS WARNINGS ARE NEGATIVE EIGENVALUE MESSAGES
                       0  ERROR MESSAGES



     JOB TIME SUMMARY
       USER TIME (SEC)      =   218.80    
       SYSTEM TIME (SEC)    =   2.1000    
       TOTAL CPU TIME (SEC) =   220.90    
       WALLCLOCK TIME (SEC) =        237
