 Abaqus/Standard 3DEXPERIENCE R2019x                  DATE 29-May-2019 TIME 13:33:50
 SUMMARY OF JOB INFORMATION:
 STEP  INC ATT SEVERE EQUIL TOTAL  TOTAL      STEP       INC OF       DOF    IF
               DISCON ITERS ITERS  TIME/    TIME/LPF    TIME/LPF    MONITOR RIKS
               ITERS               FREQ
   1     1   1U   18    16    34  0.000      0.000      1.000     
   1     1   2U   19     9    28  0.000      0.000      0.2500    
   1     1   3U   20     3    23  0.000      0.000      0.1250    
   1     1   4U    9     1    10  0.000      0.000      0.03125   
   1     1   5U   16     5    21  0.000      0.000      0.007813  
                          
 THE ANALYSIS HAS NOT BEEN COMPLETED
