 Abaqus/Standard 3DEXPERIENCE R2019x                  DATE 29-May-2019 TIME 16:35:57
 SUMMARY OF JOB INFORMATION:
 STEP  INC ATT SEVERE EQUIL TOTAL  TOTAL      STEP       INC OF       DOF    IF
               DISCON ITERS ITERS  TIME/    TIME/LPF    TIME/LPF    MONITOR RIKS
               ITERS               FREQ
   1     1   1U   18    16    34  0.000      0.000      1.000     
   1     1   2U   18    16    34  0.000      0.000      0.2500    
   1     1   3U   15     1    16  0.000      0.000      0.06250   
   1     1   4U   17     3    20  0.000      0.000      0.01563   
   1     1   5    15     1    16  0.00391    0.00391    0.003906  
   1     2   1U    5     4     9  0.00391    0.00391    0.003906  
   1     2   2     3     2     5  0.00488    0.00488    0.0009766 
   1     3   1     4     1     5  0.00635    0.00635    0.001465  
   1     4   1U    2     9    11  0.00635    0.00635    0.002197  
   1     4   2U    2     7     9  0.00635    0.00635    0.0005493 
   1     4   3U    2    10    12  0.00635    0.00635    0.0001373 
   1     4   4     1     1     2  0.00638    0.00638    3.433e-05 
   1     5   1U    1     6     7  0.00638    0.00638    5.150e-05 
   1     5   2U    1     9    10  0.00638    0.00638    1.287e-05 
   1     5   3U    1     7     8  0.00638    0.00638    1.000e-05 
                          
 THE ANALYSIS HAS NOT BEEN COMPLETED
