 Abaqus/Standard 3DEXPERIENCE R2019x                  DATE 27-May-2019 TIME 17:55:24
 SUMMARY OF JOB INFORMATION:
 STEP  INC ATT SEVERE EQUIL TOTAL  TOTAL      STEP       INC OF       DOF    IF
               DISCON ITERS ITERS  TIME/    TIME/LPF    TIME/LPF    MONITOR RIKS
               ITERS               FREQ
   1     1   1U   15    16    31  0.000      0.000      1.000     
   1     1   2U   16    10    26  0.000      0.000      0.2500    
   1     1   3U    2     1     3  0.000      0.000      0.1250    
   1     1   4U   16     1    17  0.000      0.000      0.03125   
   1     1   5U   14     7    21  0.000      0.000      0.007813  
                          
 THE ANALYSIS HAS NOT BEEN COMPLETED
