1

   Abaqus 3DEXPERIENCE R2019x                                  Date 27-May-2019   Time 20:35:03
   For demonstration or benchmarking only under agreement with Dassault Systemes or its subsidiary.

                                                                                 
                                                                                 
 STEP    1     INCREMENT     1     STEP TIME    0.00    


                        S T E P       1     S T A T I C   A N A L Y S I S


                                                                                          

     AUTOMATIC TIME CONTROL WITH -
          A SUGGESTED INITIAL TIME INCREMENT OF                 1.00    
          AND A TOTAL TIME PERIOD OF                            1.00    
          THE MINIMUM TIME INCREMENT ALLOWED IS                1.000E-05
          THE MAXIMUM TIME INCREMENT ALLOWED IS                 1.00    

     LINEAR EQUATION SOLVER TYPE         DIRECT SPARSE

 CONVERGENCE TOLERANCE PARAMETERS FOR FORCE    
     CRITERION FOR RESIDUAL FORCE     FOR A NONLINEAR PROBLEM          5.000E-03
     CRITERION FOR DISP.    CORRECTION IN A NONLINEAR PROBLEM          1.000E-02
     INITIAL VALUE OF TIME AVERAGE FORCE                               1.000E-02
     AVERAGE FORCE     IS TIME AVERAGE FORCE    
     ALTERNATE CRIT. FOR RESIDUAL FORCE     FOR A NONLINEAR PROBLEM    2.000E-02
     CRITERION FOR ZERO FORCE     RELATIVE TO TIME AVRG. FORCE         1.000E-05
     CRITERION FOR RESIDUAL FORCE     WHEN THERE IS ZERO FLUX          1.000E-05
     CRITERION FOR DISP.    CORRECTION WHEN THERE IS ZERO FLUX         1.000E-03
     CRITERION FOR RESIDUAL FORCE     FOR A LINEAR INCREMENT           1.000E-08
     FIELD CONVERSION RATIO                                             1.00    
     CRITERION FOR ZERO FORCE     REL. TO TIME AVRG. MAX. FORCE        1.000E-05
     CRITERION FOR ZERO DISP.    RELATIVE TO CHARACTERISTIC LENGTH     1.000E-08

 CONVERGENCE TOLERANCE PARAMETERS FOR MOMENT   
     CRITERION FOR RESIDUAL MOMENT    FOR A NONLINEAR PROBLEM          5.000E-03
     CRITERION FOR ROTATION CORRECTION IN A NONLINEAR PROBLEM          1.000E-02
     INITIAL VALUE OF TIME AVERAGE MOMENT                              1.000E-02
     AVERAGE MOMENT    IS TIME AVERAGE MOMENT   
     ALTERNATE CRIT. FOR RESIDUAL MOMENT    FOR A NONLINEAR PROBLEM    2.000E-02
     CRITERION FOR ZERO MOMENT    RELATIVE TO TIME AVRG. MOMENT        1.000E-05
     CRITERION FOR RESIDUAL MOMENT    WHEN THERE IS ZERO FLUX          1.000E-05
     CRITERION FOR ROTATION CORRECTION WHEN THERE IS ZERO FLUX         1.000E-03
     CRITERION FOR RESIDUAL MOMENT    FOR A LINEAR INCREMENT           1.000E-08
     FIELD CONVERSION RATIO                                             1.00    
     CRITERION FOR ZERO MOMENT    REL. TO TIME AVRG. MAX. MOMENT       1.000E-05

     VOLUMETRIC STRAIN COMPATIBILITY TOLERANCE FOR HYBRID SOLIDS       1.000E-05
     AXIAL STRAIN COMPATIBILITY TOLERANCE FOR HYBRID BEAMS             1.000E-05
     TRANS. SHEAR STRAIN COMPATIBILITY TOLERANCE FOR HYBRID BEAMS      1.000E-05
     SOFT CONTACT CONSTRAINT COMPATIBILITY TOLERANCE FOR P>P0          5.000E-03
     SOFT CONTACT CONSTRAINT COMPATIBILITY TOLERANCE FOR P=0.0         0.100    
     CONTACT FORCE ERROR TOLERANCE FOR CONVERT SDI=YES                 1.00    
     DISPLACEMENT COMPATIBILITY TOLERANCE FOR DCOUP ELEMENTS           1.000E-05
     ROTATION COMPATIBILITY TOLERANCE FOR DCOUP ELEMENTS               1.000E-05

 EQUILIBRIUM WILL BE CHECKED FOR SEVERE DISCONTINUITY ITERATIONS

 TIME INCREMENTATION CONTROL PARAMETERS:
     FIRST EQUILIBRIUM ITERATION FOR CONSECUTIVE DIVERGENCE CHECK              4
     EQUILIBRIUM ITERATION AT WHICH LOG. CONVERGENCE RATE CHECK BEGINS         8
     EQUILIBRIUM ITERATION AFTER WHICH ALTERNATE RESIDUAL IS USED              9
     MAXIMUM EQUILIBRIUM ITERATIONS ALLOWED                                   16
     EQUILIBRIUM ITERATION COUNT FOR CUT-BACK IN NEXT INCREMENT               10
     MAXIMUM EQUILIB. ITERS IN TWO INCREMENTS FOR TIME INCREMENT INCREASE      4
     MAXIMUM ITERATIONS FOR SEVERE DISCONTINUITIES                            50
     MAXIMUM ATTEMPTS ALLOWED IN AN INCREMENT                                  5
     MAXIMUM DISCON. ITERS IN TWO INCREMENTS FOR TIME INCREMENT INCREASE      50
     MAXIMUM CONTACT AUGMENTATIONS FOR *SURFACE BEHAVIOR,AUGMENTED LAGRANGE   50
     CUT-BACK FACTOR AFTER DIVERGENCE                                 0.2500    
     CUT-BACK FACTOR FOR TOO SLOW CONVERGENCE                         0.5000    
     CUT-BACK FACTOR AFTER TOO MANY EQUILIBRIUM ITERATIONS            0.7500    
     CUT-BACK FACTOR AFTER TOO MANY SEVERE DISCONTINUITY ITERATIONS   0.2500    
     CUT-BACK FACTOR AFTER PROBLEMS IN ELEMENT ASSEMBLY               0.2500    
     INCREASE FACTOR AFTER TWO INCREMENTS THAT CONVERGE QUICKLY        1.500    
     MAX. TIME INCREMENT INCREASE FACTOR ALLOWED                       1.500    
     MAX. TIME INCREMENT INCREASE FACTOR ALLOWED (DYNAMICS)            1.250    
     MAX. TIME INCREMENT INCREASE FACTOR ALLOWED (DIFFUSION)           2.000    
     MINIMUM TIME INCREMENT RATIO FOR EXTRAPOLATION TO OCCUR          0.1000    
     MAX. RATIO OF TIME INCREMENT TO STABILITY LIMIT                   1.000    
     FRACTION OF STABILITY LIMIT FOR NEW TIME INCREMENT               0.9500    
     TIME INCREMENT INCREASE FACTOR BEFORE A TIME POINT                1.000    

 CONTACT CONTROLS APPLIED TO ALL CONTACT PAIRS:
     GLOBAL STABILIZATION CONTROL IS NOT USED
     RELATIVE PENETRATION TOLERANCE FOR AUGMENTED LAGRANGE CONTACT:
          FINITE-SLIDING SURFACE-TO-SURFACE                            5.000E-02
          OTHERWISE                                                    1.000E-03

          PRINT OF INCREMENT NUMBER, TIME, ETC., EVERY    1  INCREMENTS

     THE MAXIMUM NUMBER OF INCREMENTS IN THIS STEP IS                     100

          UNSYMMETRIC MATRIX STORAGE AND SOLUTION WILL BE USED

     LINEAR EXTRAPOLATION WILL BE USED

     CHARACTERISTIC ELEMENT LENGTH      2.73    

     DETAILS REGARDING ACTUAL SOLUTION WAVEFRONT REQUESTED

     DETAILED OUTPUT OF DIAGNOSTICS TO DATABASE REQUESTED

     PRINT OF INCREMENT NUMBER, TIME, ETC., TO THE MESSAGE FILE EVERY     1  INCREMENTS

     COLLECTING MODEL CONSTRAINT INFORMATION FOR OVERCONSTRAINT CHECKS

     COLLECTING STEP CONSTRAINT INFORMATION FOR OVERCONSTRAINT CHECKS


  INCREMENT     1 STARTS. ATTEMPT NUMBER  1, TIME INCREMENT   1.00    

  NUMBER OF EQUATIONS =     30252     NUMBER OF RHS =    1
  NUMBER OF FLOATING PT. OPERATIONS =  1.03E+11

     CHECK POINT   START OF SOLVER    

     CHECK POINT  END OF SOLVER       

       ELAPSED USER TIME (SEC)      =   11.200    
       ELAPSED SYSTEM TIME (SEC)    =  0.20000    
       ELAPSED TOTAL CPU TIME (SEC) =   11.400    
       ELAPSED WALLCLOCK TIME (SEC) =         12
 

 ***WARNING: SOLVER PROBLEM. NUMERICAL SINGULARITY WHEN PROCESSING NODE 
             ASSEMBLY.1 D.O.F. 6 RATIO = 279.520E+12  .

                 1188 SEVERE DISCONTINUITIES OCCURRED DURING THIS ITERATION.
                 1188 POINTS CHANGED FROM CLOSED TO OPEN

               CONVERGENCE CHECKS FOR SEVERE DISCONTINUITY ITERATION     1

   MAX. PENETRATION ERROR 21.9017E-06  AT NODE BATTERY-1.1238 OF CONTACT PAIR 
   (ASSEMBLY_BATTERY-1_BATBOT,ASSEMBLY_CF-1_CFTOP)
   MAX. CONTACT FORCE ERROR -1.01224     AT NODE BATTERY-1.2751 OF CONTACT PAIR 
   (ASSEMBLY_BATTERY-1_BATTOP,ASSEMBLY_CF-2_CFBOT)
          THE ESTIMATED CONTACT FORCE ERROR IS OUTSIDE OF CONVERGENCE TOLERANCES.

 AVERAGE FORCE                      0.180       TIME AVG. FORCE       0.180    
 LARGEST RESIDUAL FORCE             -8.26       AT NODE          1   DOF  1
   INSTANCE:                                                                                 
 LARGEST INCREMENT OF DISP.        -0.133       AT NODE        494   DOF  3
   INSTANCE: POLYMER-1                                                                       
 LARGEST CORRECTION TO DISP.       -0.133       AT NODE        494   DOF  3
   INSTANCE: POLYMER-1                                                                       
          FORCE     EQUILIBRIUM NOT ACHIEVED WITHIN TOLERANCE.

 AVERAGE MOMENT                     5.411E-02   TIME AVG. MOMENT      5.411E-02
 LARGEST RESIDUAL MOMENT            -112.       AT NODE          1   DOF  6
   INSTANCE:                                                                                 
 LARGEST INCREMENT OF ROTATION     -4.308E-03   AT NODE          7   DOF  5
   INSTANCE: CF-1                                                                            
 LARGEST CORRECTION TO ROTATION    -4.308E-03   AT NODE          7   DOF  5
   INSTANCE: CF-1                                                                            
          MOMENT    EQUILIBRIUM NOT ACHIEVED WITHIN TOLERANCE.

  NUMBER OF EQUATIONS =     30252     NUMBER OF RHS =    1
  NUMBER OF FLOATING PT. OPERATIONS =  9.77E+10

     CHECK POINT   START OF SOLVER    

     CHECK POINT  END OF SOLVER       

       ELAPSED USER TIME (SEC)      =   10.400    
       ELAPSED SYSTEM TIME (SEC)    =   0.0000    
       ELAPSED TOTAL CPU TIME (SEC) =   10.400    
       ELAPSED WALLCLOCK TIME (SEC) =         10
 

 ***WARNING: SOLVER PROBLEM. NUMERICAL SINGULARITY WHEN PROCESSING NODE 
             ASSEMBLY.1 D.O.F. 6 RATIO = 165.397E+09  .

                 1561 SEVERE DISCONTINUITIES OCCURRED DURING THIS ITERATION.
                  578 POINTS CHANGED FROM OPEN TO CLOSED
                  608 POINTS CHANGED FROM CLOSED TO OPEN
                  375 POINTS CHANGED FROM STICKING TO SLIPPING

               CONVERGENCE CHECKS FOR SEVERE DISCONTINUITY ITERATION     2

   MAX. PENETRATION ERROR 4.01253E-03 AT NODE BATTERY-1.2658 OF CONTACT PAIR 
   (ASSEMBLY_BATTERY-1_BATTOP,ASSEMBLY_CF-2_CFBOT)
   MAX. CONTACT FORCE ERROR 2.93043     AT NODE BATTERY-1.399 OF CONTACT PAIR 
   (ASSEMBLY_BATTERY-1_BATBOT,ASSEMBLY_CF-1_CFTOP)
          THE ESTIMATED CONTACT FORCE ERROR IS OUTSIDE OF CONVERGENCE TOLERANCES.

 AVERAGE FORCE                      0.211       TIME AVG. FORCE       0.211    
 LARGEST RESIDUAL FORCE              19.5       AT NODE          1   DOF  3
   INSTANCE:                                                                                 
 LARGEST INCREMENT OF DISP.          5.30       AT NODE          7   DOF  1
   INSTANCE: CF-1                                                                            
 LARGEST CORRECTION TO DISP.         5.28       AT NODE          7   DOF  1
   INSTANCE: CF-1                                                                            
          FORCE     EQUILIBRIUM NOT ACHIEVED WITHIN TOLERANCE.

 AVERAGE MOMENT                     0.128       TIME AVG. MOMENT      0.128    
 LARGEST RESIDUAL MOMENT            -44.0       AT NODE          1   DOF  4
   INSTANCE:                                                                                 
 LARGEST INCREMENT OF ROTATION      4.844E-02   AT NODE        173   DOF  6
   INSTANCE: CF-1                                                                            
 LARGEST CORRECTION TO ROTATION     4.836E-02   AT NODE        173   DOF  6
   INSTANCE: CF-1                                                                            
          MOMENT    EQUILIBRIUM NOT ACHIEVED WITHIN TOLERANCE.

  NUMBER OF EQUATIONS =     30252     NUMBER OF RHS =    1
  NUMBER OF FLOATING PT. OPERATIONS =  9.27E+10

     CHECK POINT   START OF SOLVER    

     CHECK POINT  END OF SOLVER       

       ELAPSED USER TIME (SEC)      =   10.000    
       ELAPSED SYSTEM TIME (SEC)    =  0.10000    
       ELAPSED TOTAL CPU TIME (SEC) =   10.100    
       ELAPSED WALLCLOCK TIME (SEC) =         10
 

 ***WARNING: SOLVER PROBLEM. NUMERICAL SINGULARITY WHEN PROCESSING NODE 
             ASSEMBLY.1 D.O.F. 6 RATIO = 13.7829E+09 .

                  708 SEVERE DISCONTINUITIES OCCURRED DURING THIS ITERATION.
                  161 POINTS CHANGED FROM OPEN TO CLOSED
                  469 POINTS CHANGED FROM CLOSED TO OPEN
                    3 POINTS CHANGED FROM SLIPPING TO STICKING
                   75 POINTS CHANGED FROM STICKING TO SLIPPING

               CONVERGENCE CHECKS FOR SEVERE DISCONTINUITY ITERATION     3

   MAX. PENETRATION ERROR 352.798E-06   AT NODE BATTERY-1.3280 OF CONTACT PAIR 
   (ASSEMBLY_BATTERY-1_BATTOP,ASSEMBLY_CF-2_CFBOT)
   MAX. CONTACT FORCE ERROR -1.47675     AT NODE BATTERY-1.2957 OF CONTACT PAIR 
   (ASSEMBLY_BATTERY-1_BATTOP,ASSEMBLY_CF-2_CFBOT)
          THE ESTIMATED CONTACT FORCE ERROR IS OUTSIDE OF CONVERGENCE TOLERANCES.

 AVERAGE FORCE                      0.212       TIME AVG. FORCE       0.212    
 LARGEST RESIDUAL FORCE              3.39       AT NODE          1   DOF  3
   INSTANCE:                                                                                 
 LARGEST INCREMENT OF DISP.        -0.848       AT NODE          4   DOF  1
   INSTANCE: CF-1                                                                            
 LARGEST CORRECTION TO DISP.        -6.12       AT NODE         98   DOF  1
   INSTANCE: CF-1                                                                            
          FORCE     EQUILIBRIUM NOT ACHIEVED WITHIN TOLERANCE.

 AVERAGE MOMENT                     0.135       TIME AVG. MOMENT      0.135    
 LARGEST RESIDUAL MOMENT             1.34       AT NODE          1   DOF  5
   INSTANCE:                                                                                 
 LARGEST INCREMENT OF ROTATION     -8.210E-03   AT NODE          7   DOF  5
   INSTANCE: CF-1                                                                            
 LARGEST CORRECTION TO ROTATION    -5.568E-02   AT NODE        201   DOF  6
   INSTANCE: CF-1                                                                            
          MOMENT    EQUILIBRIUM NOT ACHIEVED WITHIN TOLERANCE.

  NUMBER OF EQUATIONS =     30252     NUMBER OF RHS =    1
  NUMBER OF FLOATING PT. OPERATIONS =  8.81E+10

     CHECK POINT   START OF SOLVER    

     CHECK POINT  END OF SOLVER       

       ELAPSED USER TIME (SEC)      =   9.5000    
       ELAPSED SYSTEM TIME (SEC)    =   0.0000    
       ELAPSED TOTAL CPU TIME (SEC) =   9.5000    
       ELAPSED WALLCLOCK TIME (SEC) =         10
 

 ***WARNING: SOLVER PROBLEM. NUMERICAL SINGULARITY WHEN PROCESSING NODE 
             ASSEMBLY.1 D.O.F. 6 RATIO = 10.5886E+09 .

                  510 SEVERE DISCONTINUITIES OCCURRED DURING THIS ITERATION.
                  129 POINTS CHANGED FROM OPEN TO CLOSED
                  306 POINTS CHANGED FROM CLOSED TO OPEN
                   75 POINTS CHANGED FROM STICKING TO SLIPPING

               CONVERGENCE CHECKS FOR SEVERE DISCONTINUITY ITERATION     4

   MAX. PENETRATION ERROR 580.125E-06   AT NODE BATTERY-1.3389 OF CONTACT PAIR 
   (ASSEMBLY_BATTERY-1_BATTOP,ASSEMBLY_CF-2_CFBOT)
   MAX. CONTACT FORCE ERROR -1.31276     AT NODE BATTERY-1.3190 OF CONTACT PAIR 
   (ASSEMBLY_BATTERY-1_BATTOP,ASSEMBLY_CF-2_CFBOT)
          THE ESTIMATED CONTACT FORCE ERROR IS OUTSIDE OF CONVERGENCE TOLERANCES.

 AVERAGE FORCE                      0.212       TIME AVG. FORCE       0.212    
 LARGEST RESIDUAL FORCE            -0.741       AT NODE       3190   DOF  3
   INSTANCE: BATTERY-1                                                                       
 LARGEST INCREMENT OF DISP.        -0.239       AT NODE          5   DOF  3
   INSTANCE: CF-2                                                                            
 LARGEST CORRECTION TO DISP.        0.991       AT NODE        169   DOF  1
   INSTANCE: CF-1                                                                            
          FORCE     EQUILIBRIUM NOT ACHIEVED WITHIN TOLERANCE.

 AVERAGE MOMENT                     0.137       TIME AVG. MOMENT      0.137    
 LARGEST RESIDUAL MOMENT             5.86       AT NODE          1   DOF  4
   INSTANCE:                                                                                 
 LARGEST INCREMENT OF ROTATION     -8.566E-03   AT NODE       1244   DOF  5
   INSTANCE: CF-2                                                                            
 LARGEST CORRECTION TO ROTATION     9.011E-03   AT NODE       1371   DOF  6
   INSTANCE: CF-1                                                                            
          MOMENT    EQUILIBRIUM NOT ACHIEVED WITHIN TOLERANCE.

  NUMBER OF EQUATIONS =     30252     NUMBER OF RHS =    1
  NUMBER OF FLOATING PT. OPERATIONS =  8.07E+10

     CHECK POINT   START OF SOLVER    

     CHECK POINT  END OF SOLVER       

       ELAPSED USER TIME (SEC)      =   8.8000    
       ELAPSED SYSTEM TIME (SEC)    =  0.10000    
       ELAPSED TOTAL CPU TIME (SEC) =   8.9000    
       ELAPSED WALLCLOCK TIME (SEC) =          9
 

 ***WARNING: SOLVER PROBLEM. NUMERICAL SINGULARITY WHEN PROCESSING NODE 
             ASSEMBLY.1 D.O.F. 6 RATIO = 11.5138E+09 .

                  335 SEVERE DISCONTINUITIES OCCURRED DURING THIS ITERATION.
                   90 POINTS CHANGED FROM OPEN TO CLOSED
                  190 POINTS CHANGED FROM CLOSED TO OPEN
                   55 POINTS CHANGED FROM STICKING TO SLIPPING

               CONVERGENCE CHECKS FOR SEVERE DISCONTINUITY ITERATION     5

   MAX. PENETRATION ERROR 282.854E-06   AT NODE BATTERY-1.3449 OF CONTACT PAIR 
   (ASSEMBLY_BATTERY-1_BATTOP,ASSEMBLY_CF-2_CFBOT)
   MAX. CONTACT FORCE ERROR -1.06965     AT NODE BATTERY-1.3280 OF CONTACT PAIR 
   (ASSEMBLY_BATTERY-1_BATTOP,ASSEMBLY_CF-2_CFBOT)
          THE ESTIMATED CONTACT FORCE ERROR IS OUTSIDE OF CONVERGENCE TOLERANCES.

 AVERAGE FORCE                      0.211       TIME AVG. FORCE       0.211    
 LARGEST RESIDUAL FORCE            -0.607       AT NODE       3280   DOF  3
   INSTANCE: BATTERY-1                                                                       
 LARGEST INCREMENT OF DISP.         0.248       AT NODE          7   DOF  1
   INSTANCE: CF-1                                                                            
 LARGEST CORRECTION TO DISP.        7.392E-02   AT NODE        169   DOF  1
   INSTANCE: CF-1                                                                            
          FORCE     EQUILIBRIUM NOT ACHIEVED WITHIN TOLERANCE.

 AVERAGE MOMENT                     0.138       TIME AVG. MOMENT      0.138    
 LARGEST RESIDUAL MOMENT            2.298E-02   AT NODE          1   DOF  4
   INSTANCE:                                                                                 
 LARGEST INCREMENT OF ROTATION     -8.718E-03   AT NODE       1208   DOF  5
   INSTANCE: CF-2                                                                            
 LARGEST CORRECTION TO ROTATION     6.741E-04   AT NODE        174   DOF  6
   INSTANCE: CF-1                                                                            
          MOMENT    EQUILIBRIUM NOT ACHIEVED WITHIN TOLERANCE.

  NUMBER OF EQUATIONS =     30252     NUMBER OF RHS =    1
  NUMBER OF FLOATING PT. OPERATIONS =  7.82E+10

     CHECK POINT   START OF SOLVER    

     CHECK POINT  END OF SOLVER       

       ELAPSED USER TIME (SEC)      =   8.5000    
       ELAPSED SYSTEM TIME (SEC)    =  0.10000    
       ELAPSED TOTAL CPU TIME (SEC) =   8.6000    
       ELAPSED WALLCLOCK TIME (SEC) =          8
 

 ***WARNING: SOLVER PROBLEM. NUMERICAL SINGULARITY WHEN PROCESSING NODE 
             ASSEMBLY.1 D.O.F. 6 RATIO = 12.4271E+09 .

                  385 SEVERE DISCONTINUITIES OCCURRED DURING THIS ITERATION.
                  146 POINTS CHANGED FROM OPEN TO CLOSED
                  130 POINTS CHANGED FROM CLOSED TO OPEN
                  109 POINTS CHANGED FROM STICKING TO SLIPPING

               CONVERGENCE CHECKS FOR SEVERE DISCONTINUITY ITERATION     6

   MAX. PENETRATION ERROR 1.24854E-03 AT NODE BATTERY-1.3587 OF CONTACT PAIR 
   (ASSEMBLY_BATTERY-1_BATTOP,ASSEMBLY_CF-2_CFBOT)
   MAX. CONTACT FORCE ERROR -946.962E-03   AT NODE BATTERY-1.3382 OF CONTACT 
   PAIR (ASSEMBLY_BATTERY-1_BATTOP,ASSEMBLY_CF-2_CFBOT)
          THE ESTIMATED CONTACT FORCE ERROR IS OUTSIDE OF CONVERGENCE TOLERANCES.

 AVERAGE FORCE                      0.211       TIME AVG. FORCE       0.211    
 LARGEST RESIDUAL FORCE            -0.584       AT NODE       3382   DOF  3
   INSTANCE: BATTERY-1                                                                       
 LARGEST INCREMENT OF DISP.         0.312       AT NODE          7   DOF  1
   INSTANCE: CF-1                                                                            
 LARGEST CORRECTION TO DISP.        6.409E-02   AT NODE        169   DOF  1
   INSTANCE: CF-1                                                                            
          FORCE     EQUILIBRIUM NOT ACHIEVED WITHIN TOLERANCE.

 AVERAGE MOMENT                     0.138       TIME AVG. MOMENT      0.138    
 LARGEST RESIDUAL MOMENT            2.112E-04   AT NODE          1   DOF  4
   INSTANCE:                                                                                 
 LARGEST INCREMENT OF ROTATION     -8.863E-03   AT NODE       1208   DOF  5
   INSTANCE: CF-2                                                                            
 LARGEST CORRECTION TO ROTATION    -9.749E-04   AT NODE       1139   DOF  5
   INSTANCE: CF-2                                                                            
 ESTIMATE OF ROTATION CORRECTION   -8.959E-06
 MOMENT    EQUILIB. ACCEPTED BASED ON SMALL RESIDUAL AND ESTIMATED CORRECTION

  NUMBER OF EQUATIONS =     30252     NUMBER OF RHS =    1
  NUMBER OF FLOATING PT. OPERATIONS =  7.86E+10

     CHECK POINT   START OF SOLVER    

     CHECK POINT  END OF SOLVER       

       ELAPSED USER TIME (SEC)      =   8.5000    
       ELAPSED SYSTEM TIME (SEC)    =  0.10000    
       ELAPSED TOTAL CPU TIME (SEC) =   8.6000    
       ELAPSED WALLCLOCK TIME (SEC) =          8
 

 ***WARNING: SOLVER PROBLEM. NUMERICAL SINGULARITY WHEN PROCESSING NODE 
             ASSEMBLY.1 D.O.F. 6 RATIO = 13.1189E+09 .

                  254 SEVERE DISCONTINUITIES OCCURRED DURING THIS ITERATION.
                   68 POINTS CHANGED FROM OPEN TO CLOSED
                  147 POINTS CHANGED FROM CLOSED TO OPEN
                   39 POINTS CHANGED FROM STICKING TO SLIPPING

               CONVERGENCE CHECKS FOR SEVERE DISCONTINUITY ITERATION     7

   MAX. PENETRATION ERROR 274.610E-06   AT NODE BATTERY-1.3365 OF CONTACT PAIR 
   (ASSEMBLY_BATTERY-1_BATTOP,ASSEMBLY_CF-2_CFBOT)
   MAX. CONTACT FORCE ERROR -868.802E-03   AT NODE BATTERY-1.3426 OF CONTACT 
   PAIR (ASSEMBLY_BATTERY-1_BATTOP,ASSEMBLY_CF-2_CFBOT)
          THE ESTIMATED CONTACT FORCE ERROR IS OUTSIDE OF CONVERGENCE TOLERANCES.

 AVERAGE FORCE                      0.211       TIME AVG. FORCE       0.211    
 LARGEST RESIDUAL FORCE            -0.505       AT NODE       3426   DOF  3
   INSTANCE: BATTERY-1                                                                       
 LARGEST INCREMENT OF DISP.         0.317       AT NODE          7   DOF  1
   INSTANCE: CF-1                                                                            
 LARGEST CORRECTION TO DISP.        5.311E-03   AT NODE        169   DOF  1
   INSTANCE: CF-1                                                                            
          FORCE     EQUILIBRIUM NOT ACHIEVED WITHIN TOLERANCE.

 AVERAGE MOMENT                     0.139       TIME AVG. MOMENT      0.139    
 LARGEST RESIDUAL MOMENT           -9.056E-03   AT NODE          1   DOF  4
   INSTANCE:                                                                                 
 LARGEST INCREMENT OF ROTATION     -8.858E-03   AT NODE       1173   DOF  5
   INSTANCE: CF-2                                                                            
 LARGEST CORRECTION TO ROTATION    -4.639E-04   AT NODE       1144   DOF  5
   INSTANCE: CF-2                                                                            
          MOMENT    EQUILIBRIUM NOT ACHIEVED WITHIN TOLERANCE.

  NUMBER OF EQUATIONS =     30252     NUMBER OF RHS =    1
  NUMBER OF FLOATING PT. OPERATIONS =  7.88E+10

     CHECK POINT   START OF SOLVER    

     CHECK POINT  END OF SOLVER       

       ELAPSED USER TIME (SEC)      =   8.5000    
       ELAPSED SYSTEM TIME (SEC)    =  0.10000    
       ELAPSED TOTAL CPU TIME (SEC) =   8.6000    
       ELAPSED WALLCLOCK TIME (SEC) =          8
 

 ***WARNING: SOLVER PROBLEM. NUMERICAL SINGULARITY WHEN PROCESSING NODE 
             ASSEMBLY.1 D.O.F. 6 RATIO = 13.6853E+09 .

                  235 SEVERE DISCONTINUITIES OCCURRED DURING THIS ITERATION.
                   78 POINTS CHANGED FROM OPEN TO CLOSED
                  111 POINTS CHANGED FROM CLOSED TO OPEN
                   46 POINTS CHANGED FROM STICKING TO SLIPPING

               CONVERGENCE CHECKS FOR SEVERE DISCONTINUITY ITERATION     8

   MAX. PENETRATION ERROR 438.733E-06   AT NODE BATTERY-1.3734 OF CONTACT PAIR 
   (ASSEMBLY_BATTERY-1_BATTOP,ASSEMBLY_CF-2_CFBOT)
   MAX. CONTACT FORCE ERROR -791.220E-03   AT NODE BATTERY-1.3498 OF CONTACT 
   PAIR (ASSEMBLY_BATTERY-1_BATTOP,ASSEMBLY_CF-2_CFBOT)
          THE ESTIMATED CONTACT FORCE ERROR IS OUTSIDE OF CONVERGENCE TOLERANCES.

 AVERAGE FORCE                      0.211       TIME AVG. FORCE       0.211    
 LARGEST RESIDUAL FORCE            -0.460       AT NODE       3498   DOF  3
   INSTANCE: BATTERY-1                                                                       
 LARGEST INCREMENT OF DISP.         0.296       AT NODE          7   DOF  1
   INSTANCE: CF-1                                                                            
 LARGEST CORRECTION TO DISP.       -2.076E-02   AT NODE          7   DOF  1
   INSTANCE: CF-2                                                                            
          FORCE     EQUILIBRIUM NOT ACHIEVED WITHIN TOLERANCE.

 AVERAGE MOMENT                     0.139       TIME AVG. MOMENT      0.139    
 LARGEST RESIDUAL MOMENT            1.643E-02   AT NODE          1   DOF  4
   INSTANCE:                                                                                 
 LARGEST INCREMENT OF ROTATION     -8.911E-03   AT NODE       1173   DOF  5
   INSTANCE: CF-2                                                                            
 LARGEST CORRECTION TO ROTATION    -5.704E-04   AT NODE       1102   DOF  5
   INSTANCE: CF-2                                                                            
          MOMENT    EQUILIBRIUM NOT ACHIEVED WITHIN TOLERANCE.

  NUMBER OF EQUATIONS =     30252     NUMBER OF RHS =    1
  NUMBER OF FLOATING PT. OPERATIONS =  7.73E+10

     CHECK POINT   START OF SOLVER    

     CHECK POINT  END OF SOLVER       

       ELAPSED USER TIME (SEC)      =   8.5000    
       ELAPSED SYSTEM TIME (SEC)    =  0.10000    
       ELAPSED TOTAL CPU TIME (SEC) =   8.6000    
       ELAPSED WALLCLOCK TIME (SEC) =          9
 

 ***WARNING: SOLVER PROBLEM. NUMERICAL SINGULARITY WHEN PROCESSING NODE 
             ASSEMBLY.1 D.O.F. 6 RATIO = 14.4961E+09 .

                  190 SEVERE DISCONTINUITIES OCCURRED DURING THIS ITERATION.
                   56 POINTS CHANGED FROM OPEN TO CLOSED
                  100 POINTS CHANGED FROM CLOSED TO OPEN
                   34 POINTS CHANGED FROM STICKING TO SLIPPING

               CONVERGENCE CHECKS FOR SEVERE DISCONTINUITY ITERATION     9

   MAX. PENETRATION ERROR 234.892E-06   AT NODE BATTERY-1.3736 OF CONTACT PAIR 
   (ASSEMBLY_BATTERY-1_BATTOP,ASSEMBLY_CF-2_CFBOT)
   MAX. CONTACT FORCE ERROR -661.739E-03   AT NODE BATTERY-1.3523 OF CONTACT 
   PAIR (ASSEMBLY_BATTERY-1_BATTOP,ASSEMBLY_CF-2_CFBOT)
          THE ESTIMATED CONTACT FORCE ERROR IS OUTSIDE OF CONVERGENCE TOLERANCES.

 AVERAGE FORCE                      0.211       TIME AVG. FORCE       0.211    
 LARGEST RESIDUAL FORCE             0.505       AT NODE       1073   DOF  3
   INSTANCE: CF-2                                                                            
 LARGEST INCREMENT OF DISP.         0.329       AT NODE          7   DOF  1
   INSTANCE: CF-1                                                                            
 LARGEST CORRECTION TO DISP.        3.267E-02   AT NODE        169   DOF  1
   INSTANCE: CF-1                                                                            
          FORCE     EQUILIBRIUM NOT ACHIEVED WITHIN TOLERANCE.

 AVERAGE MOMENT                     0.140       TIME AVG. MOMENT      0.140    
 LARGEST RESIDUAL MOMENT           -0.241       AT NODE          1   DOF  4
   INSTANCE:                                                                                 
 LARGEST INCREMENT OF ROTATION     -8.892E-03   AT NODE       1172   DOF  5
   INSTANCE: CF-2                                                                            
 LARGEST CORRECTION TO ROTATION    -4.932E-04   AT NODE       1061   DOF  5
   INSTANCE: CF-2                                                                            
          MOMENT    EQUILIBRIUM NOT ACHIEVED WITHIN TOLERANCE.

  NUMBER OF EQUATIONS =     30252     NUMBER OF RHS =    1
  NUMBER OF FLOATING PT. OPERATIONS =  7.58E+10

     CHECK POINT   START OF SOLVER    

     CHECK POINT  END OF SOLVER       

       ELAPSED USER TIME (SEC)      =   8.3000    
       ELAPSED SYSTEM TIME (SEC)    =  0.10000    
       ELAPSED TOTAL CPU TIME (SEC) =   8.4000    
       ELAPSED WALLCLOCK TIME (SEC) =          8
 

 ***WARNING: SOLVER PROBLEM. NUMERICAL SINGULARITY WHEN PROCESSING NODE 
             ASSEMBLY.1 D.O.F. 6 RATIO = 15.3068E+09 .

                  140 SEVERE DISCONTINUITIES OCCURRED DURING THIS ITERATION.
                   47 POINTS CHANGED FROM OPEN TO CLOSED
                   74 POINTS CHANGED FROM CLOSED TO OPEN
                   19 POINTS CHANGED FROM STICKING TO SLIPPING

               CONVERGENCE CHECKS FOR SEVERE DISCONTINUITY ITERATION    10

   MAX. PENETRATION ERROR 435.949E-06   AT NODE BATTERY-1.3618 OF CONTACT PAIR 
   (ASSEMBLY_BATTERY-1_BATTOP,ASSEMBLY_CF-2_CFBOT)
   MAX. CONTACT FORCE ERROR -567.735E-03   AT NODE BATTERY-1.3551 OF CONTACT 
   PAIR (ASSEMBLY_BATTERY-1_BATTOP,ASSEMBLY_CF-2_CFBOT)
          THE ESTIMATED CONTACT FORCE ERROR IS OUTSIDE OF CONVERGENCE TOLERANCES.

 AVERAGE FORCE                      0.211       TIME AVG. FORCE       0.211    
 LARGEST RESIDUAL FORCE            -0.334       AT NODE       3551   DOF  3
   INSTANCE: BATTERY-1                                                                       
 LARGEST INCREMENT OF DISP.         0.276       AT NODE          7   DOF  1
   INSTANCE: CF-1                                                                            
 LARGEST CORRECTION TO DISP.       -5.290E-02   AT NODE          7   DOF  1
   INSTANCE: CF-2                                                                            
          FORCE     EQUILIBRIUM NOT ACHIEVED WITHIN TOLERANCE.

 AVERAGE MOMENT                     0.140       TIME AVG. MOMENT      0.140    
 LARGEST RESIDUAL MOMENT            2.312E-04   AT NODE        532   DOF  5
   INSTANCE: CF-2                                                                            
 LARGEST INCREMENT OF ROTATION     -8.821E-03   AT NODE       1172   DOF  5
   INSTANCE: CF-2                                                                            
 LARGEST CORRECTION TO ROTATION    -6.107E-04   AT NODE       1073   DOF  5
   INSTANCE: CF-2                                                                            
 ESTIMATE OF ROTATION CORRECTION   -8.595E-06
 MOMENT    EQUILIB. ACCEPTED BASED ON SMALL RESIDUAL AND ESTIMATED CORRECTION

  NUMBER OF EQUATIONS =     30252     NUMBER OF RHS =    1
  NUMBER OF FLOATING PT. OPERATIONS =  7.53E+10

     CHECK POINT   START OF SOLVER    

     CHECK POINT  END OF SOLVER       

       ELAPSED USER TIME (SEC)      =   8.2000    
       ELAPSED SYSTEM TIME (SEC)    =  0.10000    
       ELAPSED TOTAL CPU TIME (SEC) =   8.3000    
       ELAPSED WALLCLOCK TIME (SEC) =          8
 

 ***WARNING: SOLVER PROBLEM. NUMERICAL SINGULARITY WHEN PROCESSING NODE 
             ASSEMBLY.1 D.O.F. 6 RATIO = 15.9343E+09 .

                  101 SEVERE DISCONTINUITIES OCCURRED DURING THIS ITERATION.
                   18 POINTS CHANGED FROM OPEN TO CLOSED
                   79 POINTS CHANGED FROM CLOSED TO OPEN
                    4 POINTS CHANGED FROM STICKING TO SLIPPING

               CONVERGENCE CHECKS FOR SEVERE DISCONTINUITY ITERATION    11

   MAX. PENETRATION ERROR 70.3266E-06  AT NODE BATTERY-1.310 OF CONTACT PAIR 
   (ASSEMBLY_BATTERY-1_BATBOT,ASSEMBLY_CF-1_CFTOP)
   MAX. CONTACT FORCE ERROR -889.867E-03   AT NODE BATTERY-1.2544 OF CONTACT 
   PAIR (ASSEMBLY_BATTERY-1_BATTOP,ASSEMBLY_CF-2_CFBOT)
          THE ESTIMATED CONTACT FORCE ERROR IS OUTSIDE OF CONVERGENCE TOLERANCES.

 AVERAGE FORCE                      0.211       TIME AVG. FORCE       0.211    
 LARGEST RESIDUAL FORCE             0.390       AT NODE        999   DOF  3
   INSTANCE: CF-2                                                                            
 LARGEST INCREMENT OF DISP.         0.309       AT NODE          7   DOF  1
   INSTANCE: CF-1                                                                            
 LARGEST CORRECTION TO DISP.        3.257E-02   AT NODE        169   DOF  1
   INSTANCE: CF-1                                                                            
          FORCE     EQUILIBRIUM NOT ACHIEVED WITHIN TOLERANCE.

 AVERAGE MOMENT                     0.139       TIME AVG. MOMENT      0.139    
 LARGEST RESIDUAL MOMENT            5.168E-03   AT NODE        308   DOF  5
   INSTANCE: CF-2                                                                            
 LARGEST INCREMENT OF ROTATION     -8.731E-03   AT NODE       1136   DOF  5
   INSTANCE: CF-2                                                                            
 LARGEST CORRECTION TO ROTATION    -4.723E-04   AT NODE       1029   DOF  5
   INSTANCE: CF-2                                                                            
          MOMENT    EQUILIBRIUM NOT ACHIEVED WITHIN TOLERANCE.

  NUMBER OF EQUATIONS =     30252     NUMBER OF RHS =    1
  NUMBER OF FLOATING PT. OPERATIONS =  7.31E+10

     CHECK POINT   START OF SOLVER    

     CHECK POINT  END OF SOLVER       

       ELAPSED USER TIME (SEC)      =   8.0000    
       ELAPSED SYSTEM TIME (SEC)    =   0.0000    
       ELAPSED TOTAL CPU TIME (SEC) =   8.0000    
       ELAPSED WALLCLOCK TIME (SEC) =          8
 

 ***WARNING: SOLVER PROBLEM. NUMERICAL SINGULARITY WHEN PROCESSING NODE 
             ASSEMBLY.1 D.O.F. 6 RATIO = 16.3038E+09 .

                   71 SEVERE DISCONTINUITIES OCCURRED DURING THIS ITERATION.
                   19 POINTS CHANGED FROM OPEN TO CLOSED
                   46 POINTS CHANGED FROM CLOSED TO OPEN
                    6 POINTS CHANGED FROM STICKING TO SLIPPING

               CONVERGENCE CHECKS FOR SEVERE DISCONTINUITY ITERATION    12

   MAX. PENETRATION ERROR 119.623E-06   AT NODE BATTERY-1.742 OF CONTACT PAIR 
   (ASSEMBLY_BATTERY-1_BATBOT,ASSEMBLY_CF-1_CFTOP)
   MAX. CONTACT FORCE ERROR -671.188E-03   AT NODE BATTERY-1.3597 OF CONTACT 
   PAIR (ASSEMBLY_BATTERY-1_BATTOP,ASSEMBLY_CF-2_CFBOT)
          THE ESTIMATED CONTACT FORCE ERROR IS OUTSIDE OF CONVERGENCE TOLERANCES.

 AVERAGE FORCE                      0.211       TIME AVG. FORCE       0.211    
 LARGEST RESIDUAL FORCE            -0.399       AT NODE       3597   DOF  3
   INSTANCE: BATTERY-1                                                                       
 LARGEST INCREMENT OF DISP.        -0.241       AT NODE          5   DOF  3
   INSTANCE: CF-2                                                                            
 LARGEST CORRECTION TO DISP.       -8.031E-02   AT NODE          7   DOF  1
   INSTANCE: CF-2                                                                            
          FORCE     EQUILIBRIUM NOT ACHIEVED WITHIN TOLERANCE.

 AVERAGE MOMENT                     0.139       TIME AVG. MOMENT      0.139    
 LARGEST RESIDUAL MOMENT           -8.417E-04   AT NODE        919   DOF  5
   INSTANCE: CF-2                                                                            
 LARGEST INCREMENT OF ROTATION     -8.665E-03   AT NODE       1136   DOF  5
   INSTANCE: CF-2                                                                            
 LARGEST CORRECTION TO ROTATION    -7.314E-04   AT NODE        953   DOF  6
   INSTANCE: CF-2                                                                            
          MOMENT    EQUILIBRIUM NOT ACHIEVED WITHIN TOLERANCE.

  NUMBER OF EQUATIONS =     30252     NUMBER OF RHS =    1
  NUMBER OF FLOATING PT. OPERATIONS =  7.20E+10

     CHECK POINT   START OF SOLVER    

     CHECK POINT  END OF SOLVER       

       ELAPSED USER TIME (SEC)      =   7.9000    
       ELAPSED SYSTEM TIME (SEC)    =  0.10000    
       ELAPSED TOTAL CPU TIME (SEC) =   8.0000    
       ELAPSED WALLCLOCK TIME (SEC) =          8
 

 ***WARNING: SOLVER PROBLEM. NUMERICAL SINGULARITY WHEN PROCESSING NODE 
             ASSEMBLY.1 D.O.F. 6 RATIO = 16.8357E+09 .

                   53 SEVERE DISCONTINUITIES OCCURRED DURING THIS ITERATION.
                   13 POINTS CHANGED FROM OPEN TO CLOSED
                   36 POINTS CHANGED FROM CLOSED TO OPEN
                    4 POINTS CHANGED FROM STICKING TO SLIPPING

               CONVERGENCE CHECKS FOR SEVERE DISCONTINUITY ITERATION    13

   MAX. PENETRATION ERROR 92.7797E-06  AT NODE BATTERY-1.3381 OF CONTACT PAIR 
   (ASSEMBLY_BATTERY-1_BATTOP,ASSEMBLY_CF-2_CFBOT)
   MAX. CONTACT FORCE ERROR -984.569E-03   AT NODE BATTERY-1.2532 OF CONTACT 
   PAIR (ASSEMBLY_BATTERY-1_BATTOP,ASSEMBLY_CF-2_CFBOT)
          THE ESTIMATED CONTACT FORCE ERROR IS OUTSIDE OF CONVERGENCE TOLERANCES.

 AVERAGE FORCE                      0.211       TIME AVG. FORCE       0.211    
 LARGEST RESIDUAL FORCE            -0.491       AT NODE       3234   DOF  3
   INSTANCE: BATTERY-1                                                                       
 LARGEST INCREMENT OF DISP.         0.258       AT NODE          7   DOF  1
   INSTANCE: CF-1                                                                            
 LARGEST CORRECTION TO DISP.        2.986E-02   AT NODE        169   DOF  1
   INSTANCE: CF-1                                                                            
          FORCE     EQUILIBRIUM NOT ACHIEVED WITHIN TOLERANCE.

 AVERAGE MOMENT                     0.139       TIME AVG. MOMENT      0.139    
 LARGEST RESIDUAL MOMENT            1.339E-02   AT NODE          1   DOF  4
   INSTANCE:                                                                                 
 LARGEST INCREMENT OF ROTATION     -8.472E-03   AT NODE       1137   DOF  5
   INSTANCE: CF-2                                                                            
 LARGEST CORRECTION TO ROTATION    -6.285E-04   AT NODE        956   DOF  5
   INSTANCE: CF-2                                                                            
          MOMENT    EQUILIBRIUM NOT ACHIEVED WITHIN TOLERANCE.

  NUMBER OF EQUATIONS =     30252     NUMBER OF RHS =    1
  NUMBER OF FLOATING PT. OPERATIONS =  7.17E+10

     CHECK POINT   START OF SOLVER    

     CHECK POINT  END OF SOLVER       

       ELAPSED USER TIME (SEC)      =   7.8000    
       ELAPSED SYSTEM TIME (SEC)    =   0.0000    
       ELAPSED TOTAL CPU TIME (SEC) =   7.8000    
       ELAPSED WALLCLOCK TIME (SEC) =          8
 

 ***WARNING: SOLVER PROBLEM. NUMERICAL SINGULARITY WHEN PROCESSING NODE 
             ASSEMBLY.1 D.O.F. 6 RATIO = 17.1466E+09 .

                   50 SEVERE DISCONTINUITIES OCCURRED DURING THIS ITERATION.
                   22 POINTS CHANGED FROM OPEN TO CLOSED
                   27 POINTS CHANGED FROM CLOSED TO OPEN
                    1 POINTS CHANGED FROM STICKING TO SLIPPING

               CONVERGENCE CHECKS FOR SEVERE DISCONTINUITY ITERATION    14

   MAX. PENETRATION ERROR 194.359E-06   AT NODE BATTERY-1.1165 OF CONTACT PAIR 
   (ASSEMBLY_BATTERY-1_BATBOT,ASSEMBLY_CF-1_CFTOP)
   MAX. CONTACT FORCE ERROR -886.601E-03   AT NODE BATTERY-1.2531 OF CONTACT 
   PAIR (ASSEMBLY_BATTERY-1_BATTOP,ASSEMBLY_CF-2_CFBOT)
          THE ESTIMATED CONTACT FORCE ERROR IS OUTSIDE OF CONVERGENCE TOLERANCES.

 AVERAGE FORCE                      0.211       TIME AVG. FORCE       0.211    
 LARGEST RESIDUAL FORCE            -0.323       AT NODE       3413   DOF  3
   INSTANCE: BATTERY-1                                                                       
 LARGEST INCREMENT OF DISP.        -0.241       AT NODE          5   DOF  3
   INSTANCE: CF-2                                                                            
 LARGEST CORRECTION TO DISP.       -9.216E-02   AT NODE          7   DOF  1
   INSTANCE: CF-2                                                                            
          FORCE     EQUILIBRIUM NOT ACHIEVED WITHIN TOLERANCE.

 AVERAGE MOMENT                     0.139       TIME AVG. MOMENT      0.139    
 LARGEST RESIDUAL MOMENT           -4.745E-02   AT NODE          1   DOF  5
   INSTANCE:                                                                                 
 LARGEST INCREMENT OF ROTATION     -8.364E-03   AT NODE          7   DOF  5
   INSTANCE: CF-1                                                                            
 LARGEST CORRECTION TO ROTATION    -8.390E-04   AT NODE        921   DOF  6
   INSTANCE: CF-2                                                                            
          MOMENT    EQUILIBRIUM NOT ACHIEVED WITHIN TOLERANCE.

  NUMBER OF EQUATIONS =     30252     NUMBER OF RHS =    1
  NUMBER OF FLOATING PT. OPERATIONS =  7.23E+10

     CHECK POINT   START OF SOLVER    

     CHECK POINT  END OF SOLVER       

       ELAPSED USER TIME (SEC)      =   7.8000    
       ELAPSED SYSTEM TIME (SEC)    =  0.10000    
       ELAPSED TOTAL CPU TIME (SEC) =   7.9000    
       ELAPSED WALLCLOCK TIME (SEC) =          8
 

 ***WARNING: SOLVER PROBLEM. NUMERICAL SINGULARITY WHEN PROCESSING NODE 
             ASSEMBLY.1 D.O.F. 6 RATIO = 17.4966E+09 .

                   32 SEVERE DISCONTINUITIES OCCURRED DURING THIS ITERATION.
                   13 POINTS CHANGED FROM OPEN TO CLOSED
                   18 POINTS CHANGED FROM CLOSED TO OPEN
                    1 POINTS CHANGED FROM STICKING TO SLIPPING

               CONVERGENCE CHECKS FOR SEVERE DISCONTINUITY ITERATION    15

   MAX. PENETRATION ERROR 117.457E-06   AT NODE BATTERY-1.724 OF CONTACT PAIR 
   (ASSEMBLY_BATTERY-1_BATBOT,ASSEMBLY_CF-1_CFTOP)
   MAX. CONTACT FORCE ERROR 124.536E-03   AT NODE BATTERY-1.724 OF CONTACT PAIR 
   (ASSEMBLY_BATTERY-1_BATBOT,ASSEMBLY_CF-1_CFTOP)
          THE CONTACT CONSTRAINT ERRORS ARE WITHIN THE TOLERANCES.

 AVERAGE FORCE                      0.211       TIME AVG. FORCE       0.211    
 LARGEST RESIDUAL FORCE             5.665E-02   AT NODE          1   DOF  3
   INSTANCE:                                                                                 
 LARGEST INCREMENT OF DISP.         0.245       AT NODE          7   DOF  1
   INSTANCE: CF-1                                                                            
 LARGEST CORRECTION TO DISP.        7.864E-02   AT NODE        169   DOF  1
   INSTANCE: CF-1                                                                            
          FORCE     EQUILIBRIUM NOT ACHIEVED WITHIN TOLERANCE.

 AVERAGE MOMENT                     0.139       TIME AVG. MOMENT      0.139    
 LARGEST RESIDUAL MOMENT           -0.133       AT NODE          1   DOF  5
   INSTANCE:                                                                                 
 LARGEST INCREMENT OF ROTATION     -8.366E-03   AT NODE          7   DOF  5
   INSTANCE: CF-1                                                                            
 LARGEST CORRECTION TO ROTATION     7.155E-04   AT NODE        136   DOF  6
   INSTANCE: CF-1                                                                            
          MOMENT    EQUILIBRIUM NOT ACHIEVED WITHIN TOLERANCE.

  NUMBER OF EQUATIONS =     30252     NUMBER OF RHS =    1
  NUMBER OF FLOATING PT. OPERATIONS =  7.22E+10

     CHECK POINT   START OF SOLVER    

     CHECK POINT  END OF SOLVER       

       ELAPSED USER TIME (SEC)      =   7.9000    
       ELAPSED SYSTEM TIME (SEC)    =   0.0000    
       ELAPSED TOTAL CPU TIME (SEC) =   7.9000    
       ELAPSED WALLCLOCK TIME (SEC) =          8
 

 ***WARNING: SOLVER PROBLEM. NUMERICAL SINGULARITY WHEN PROCESSING NODE 
             ASSEMBLY.1 D.O.F. 6 RATIO = 17.8438E+09 .

                   15 SEVERE DISCONTINUITIES OCCURRED DURING THIS ITERATION.
                    2 POINTS CHANGED FROM OPEN TO CLOSED
                   13 POINTS CHANGED FROM CLOSED TO OPEN

               CONVERGENCE CHECKS FOR SEVERE DISCONTINUITY ITERATION    16

   MAX. PENETRATION ERROR 7.27468E-06 AT NODE BATTERY-1.742 OF CONTACT PAIR 
   (ASSEMBLY_BATTERY-1_BATBOT,ASSEMBLY_CF-1_CFTOP)
   MAX. CONTACT FORCE ERROR -62.7141E-03  AT NODE BATTERY-1.1211 OF CONTACT 
   PAIR (ASSEMBLY_BATTERY-1_BATBOT,ASSEMBLY_CF-1_CFTOP)
          THE CONTACT CONSTRAINT ERRORS ARE WITHIN THE TOLERANCES.

 AVERAGE FORCE                      0.211       TIME AVG. FORCE       0.211    
 LARGEST RESIDUAL FORCE             3.535E-02   AT NODE       1211   DOF  3
   INSTANCE: BATTERY-1                                                                       
 LARGEST INCREMENT OF DISP.        -0.241       AT NODE          5   DOF  3
   INSTANCE: CF-2                                                                            
 LARGEST CORRECTION TO DISP.       -6.405E-02   AT NODE        167   DOF  1
   INSTANCE: CF-1                                                                            
          FORCE     EQUILIBRIUM NOT ACHIEVED WITHIN TOLERANCE.

 AVERAGE MOMENT                     0.139       TIME AVG. MOMENT      0.139    
 LARGEST RESIDUAL MOMENT            3.399E-02   AT NODE          1   DOF  4
   INSTANCE:                                                                                 
 LARGEST INCREMENT OF ROTATION     -8.366E-03   AT NODE          7   DOF  5
   INSTANCE: CF-1                                                                            
 LARGEST CORRECTION TO ROTATION    -5.824E-04   AT NODE        991   DOF  6
   INSTANCE: CF-1                                                                            
          MOMENT    EQUILIBRIUM NOT ACHIEVED WITHIN TOLERANCE.

  NUMBER OF EQUATIONS =     30252     NUMBER OF RHS =    1
  NUMBER OF FLOATING PT. OPERATIONS =  7.18E+10

     CHECK POINT   START OF SOLVER    

     CHECK POINT  END OF SOLVER       

       ELAPSED USER TIME (SEC)      =   7.8000    
       ELAPSED SYSTEM TIME (SEC)    =  0.10000    
       ELAPSED TOTAL CPU TIME (SEC) =   7.9000    
       ELAPSED WALLCLOCK TIME (SEC) =          8
 

 ***WARNING: SOLVER PROBLEM. NUMERICAL SINGULARITY WHEN PROCESSING NODE 
             ASSEMBLY.1 D.O.F. 6 RATIO = 17.8683E+09 .

                    4 SEVERE DISCONTINUITIES OCCURRED DURING THIS ITERATION.
                    1 POINTS CHANGED FROM OPEN TO CLOSED
                    3 POINTS CHANGED FROM CLOSED TO OPEN

               CONVERGENCE CHECKS FOR SEVERE DISCONTINUITY ITERATION    17

   MAX. PENETRATION ERROR 3.00709E-06 AT NODE BATTERY-1.640 OF CONTACT PAIR 
   (ASSEMBLY_BATTERY-1_BATBOT,ASSEMBLY_CF-1_CFTOP)
   MAX. CONTACT FORCE ERROR -25.2382E-03  AT NODE BATTERY-1.464 OF CONTACT PAIR 
   (ASSEMBLY_BATTERY-1_BATBOT,ASSEMBLY_CF-1_CFTOP)
          THE CONTACT CONSTRAINT ERRORS ARE WITHIN THE TOLERANCES.

 AVERAGE FORCE                      0.211       TIME AVG. FORCE       0.211    
 LARGEST RESIDUAL FORCE             1.417E-02   AT NODE        464   DOF  3
   INSTANCE: BATTERY-1                                                                       
 LARGEST INCREMENT OF DISP.        -0.241       AT NODE          5   DOF  3
   INSTANCE: CF-2                                                                            
 LARGEST CORRECTION TO DISP.        5.773E-02   AT NODE        113   DOF  1
   INSTANCE: CF-1                                                                            
          FORCE     EQUILIBRIUM NOT ACHIEVED WITHIN TOLERANCE.

 AVERAGE MOMENT                     0.139       TIME AVG. MOMENT      0.139    
 LARGEST RESIDUAL MOMENT           -2.609E-04   AT NODE          1   DOF  6
   INSTANCE:                                                                                 
 LARGEST INCREMENT OF ROTATION     -8.366E-03   AT NODE          7   DOF  5
   INSTANCE: CF-1                                                                            
 LARGEST CORRECTION TO ROTATION     5.249E-04   AT NODE        998   DOF  6
   INSTANCE: CF-1                                                                            
 ESTIMATE OF ROTATION CORRECTION   -4.030E-06
 MOMENT    EQUILIB. ACCEPTED BASED ON SMALL RESIDUAL AND ESTIMATED CORRECTION

  NUMBER OF EQUATIONS =     30252     NUMBER OF RHS =    1
  NUMBER OF FLOATING PT. OPERATIONS =  7.16E+10

     CHECK POINT   START OF SOLVER    

     CHECK POINT  END OF SOLVER       

       ELAPSED USER TIME (SEC)      =   7.7000    
       ELAPSED SYSTEM TIME (SEC)    =   0.0000    
       ELAPSED TOTAL CPU TIME (SEC) =   7.7000    
       ELAPSED WALLCLOCK TIME (SEC) =          8
 

 ***WARNING: SOLVER PROBLEM. NUMERICAL SINGULARITY WHEN PROCESSING NODE 
             ASSEMBLY.1 D.O.F. 6 RATIO = 17.8908E+09 .

                    1 SEVERE DISCONTINUITIES OCCURRED DURING THIS ITERATION.
                    1 POINTS CHANGED FROM CLOSED TO OPEN

               CONVERGENCE CHECKS FOR SEVERE DISCONTINUITY ITERATION    18

   MAX. PENETRATION ERROR -70.1676E-12  AT NODE BATTERY-1.769 OF CONTACT PAIR 
   (ASSEMBLY_BATTERY-1_BATBOT,ASSEMBLY_CF-1_CFTOP)
   MAX. CONTACT FORCE ERROR -405.387E-06   AT NODE BATTERY-1.926 OF CONTACT 
   PAIR (ASSEMBLY_BATTERY-1_BATBOT,ASSEMBLY_CF-1_CFTOP)
          THE CONTACT CONSTRAINT ERRORS ARE WITHIN THE TOLERANCES.

 AVERAGE FORCE                      0.211       TIME AVG. FORCE       0.211    
 LARGEST RESIDUAL FORCE             2.287E-04   AT NODE        926   DOF  3
   INSTANCE: BATTERY-1                                                                       
 LARGEST INCREMENT OF DISP.        -0.241       AT NODE          5   DOF  3
   INSTANCE: CF-2                                                                            
 LARGEST CORRECTION TO DISP.       -4.987E-02   AT NODE         99   DOF  1
   INSTANCE: CF-1                                                                            
          DISP.    CORRECTION TOO LARGE COMPARED TO DISP.    INCREMENT

 AVERAGE MOMENT                     0.139       TIME AVG. MOMENT      0.139    
 LARGEST RESIDUAL MOMENT            1.977E-04   AT NODE          1   DOF  6
   INSTANCE:                                                                                 
 LARGEST INCREMENT OF ROTATION     -8.366E-03   AT NODE          7   DOF  5
   INSTANCE: CF-1                                                                            
 LARGEST CORRECTION TO ROTATION    -4.534E-04   AT NODE         46   DOF  6
   INSTANCE: CF-1                                                                            
          ROTATION CORRECTION TOO LARGE COMPARED TO ROTATION INCREMENT

  NUMBER OF EQUATIONS =     30252     NUMBER OF RHS =    1
  NUMBER OF FLOATING PT. OPERATIONS =  7.16E+10

     CHECK POINT   START OF SOLVER    

     CHECK POINT  END OF SOLVER       

       ELAPSED USER TIME (SEC)      =   7.9000    
       ELAPSED SYSTEM TIME (SEC)    =  0.10000    
       ELAPSED TOTAL CPU TIME (SEC) =   8.0000    
       ELAPSED WALLCLOCK TIME (SEC) =          8
 

 ***WARNING: SOLVER PROBLEM. NUMERICAL SINGULARITY WHEN PROCESSING NODE 
             ASSEMBLY.1 D.O.F. 6 RATIO = 17.8935E+09 .

               CONVERGENCE CHECKS FOR EQUILIBRIUM ITERATION     1

   MAX. PENETRATION ERROR -17.9406E-12  AT NODE BATTERY-1.326 OF CONTACT PAIR 
   (ASSEMBLY_BATTERY-1_BATBOT,ASSEMBLY_CF-1_CFTOP)
   MAX. CONTACT FORCE ERROR -23.7395E-09  AT NODE BATTERY-1.449 OF CONTACT PAIR 
   (ASSEMBLY_BATTERY-1_BATBOT,ASSEMBLY_CF-1_CFTOP)
          THE CONTACT CONSTRAINTS HAVE CONVERGED.

 AVERAGE FORCE                      0.211       TIME AVG. FORCE       0.211    
 LARGEST RESIDUAL FORCE             3.627E-05   AT NODE          1   DOF  2
   INSTANCE:                                                                                 
 LARGEST INCREMENT OF DISP.        -0.241       AT NODE          5   DOF  3
   INSTANCE: CF-2                                                                            
 LARGEST CORRECTION TO DISP.        4.345E-02   AT NODE        114   DOF  1
   INSTANCE: CF-2                                                                            
          DISP.    CORRECTION TOO LARGE COMPARED TO DISP.    INCREMENT

 AVERAGE MOMENT                     0.139       TIME AVG. MOMENT      0.139    
 LARGEST RESIDUAL MOMENT           -1.847E-04   AT NODE          1   DOF  6
   INSTANCE:                                                                                 
 LARGEST INCREMENT OF ROTATION     -8.366E-03   AT NODE          7   DOF  5
   INSTANCE: CF-1                                                                            
 LARGEST CORRECTION TO ROTATION     3.950E-04   AT NODE       1357   DOF  6
   INSTANCE: CF-1                                                                            
          ROTATION CORRECTION TOO LARGE COMPARED TO ROTATION INCREMENT

  NUMBER OF EQUATIONS =     30252     NUMBER OF RHS =    1
  NUMBER OF FLOATING PT. OPERATIONS =  7.16E+10

     CHECK POINT   START OF SOLVER    

     CHECK POINT  END OF SOLVER       

       ELAPSED USER TIME (SEC)      =   7.9000    
       ELAPSED SYSTEM TIME (SEC)    =   0.0000    
       ELAPSED TOTAL CPU TIME (SEC) =   7.9000    
       ELAPSED WALLCLOCK TIME (SEC) =          8
 

 ***WARNING: SOLVER PROBLEM. NUMERICAL SINGULARITY WHEN PROCESSING NODE 
             ASSEMBLY.1 D.O.F. 6 RATIO = 17.8923E+09 .

               CONVERGENCE CHECKS FOR EQUILIBRIUM ITERATION     2

   MAX. PENETRATION ERROR -16.9574E-12  AT NODE BATTERY-1.400 OF CONTACT PAIR 
   (ASSEMBLY_BATTERY-1_BATBOT,ASSEMBLY_CF-1_CFTOP)
   MAX. CONTACT FORCE ERROR -25.8237E-09  AT NODE BATTERY-1.357 OF CONTACT PAIR 
   (ASSEMBLY_BATTERY-1_BATBOT,ASSEMBLY_CF-1_CFTOP)
          THE CONTACT CONSTRAINTS HAVE CONVERGED.

 AVERAGE FORCE                      0.211       TIME AVG. FORCE       0.211    
 LARGEST RESIDUAL FORCE            -3.163E-05   AT NODE          1   DOF  2
   INSTANCE:                                                                                 
 LARGEST INCREMENT OF DISP.        -0.241       AT NODE          5   DOF  3
   INSTANCE: CF-2                                                                            
 LARGEST CORRECTION TO DISP.       -3.788E-02   AT NODE        114   DOF  1
   INSTANCE: CF-2                                                                            
          DISP.    CORRECTION TOO LARGE COMPARED TO DISP.    INCREMENT

 AVERAGE MOMENT                     0.139       TIME AVG. MOMENT      0.139    
 LARGEST RESIDUAL MOMENT            1.588E-04   AT NODE          1   DOF  6
   INSTANCE:                                                                                 
 LARGEST INCREMENT OF ROTATION     -8.366E-03   AT NODE          7   DOF  5
   INSTANCE: CF-1                                                                            
 LARGEST CORRECTION TO ROTATION    -3.444E-04   AT NODE       1357   DOF  6
   INSTANCE: CF-1                                                                            
          ROTATION CORRECTION TOO LARGE COMPARED TO ROTATION INCREMENT

  NUMBER OF EQUATIONS =     30252     NUMBER OF RHS =    1
  NUMBER OF FLOATING PT. OPERATIONS =  7.16E+10

     CHECK POINT   START OF SOLVER    

     CHECK POINT  END OF SOLVER       

       ELAPSED USER TIME (SEC)      =   7.9000    
       ELAPSED SYSTEM TIME (SEC)    =   0.0000    
       ELAPSED TOTAL CPU TIME (SEC) =   7.9000    
       ELAPSED WALLCLOCK TIME (SEC) =          8
 

 ***WARNING: SOLVER PROBLEM. NUMERICAL SINGULARITY WHEN PROCESSING NODE 
             ASSEMBLY.1 D.O.F. 6 RATIO = 17.8955E+09 .

               CONVERGENCE CHECKS FOR EQUILIBRIUM ITERATION     3

   MAX. PENETRATION ERROR -10.3694E-12  AT NODE BATTERY-1.326 OF CONTACT PAIR 
   (ASSEMBLY_BATTERY-1_BATBOT,ASSEMBLY_CF-1_CFTOP)
   MAX. CONTACT FORCE ERROR -13.6676E-09  AT NODE BATTERY-1.449 OF CONTACT PAIR 
   (ASSEMBLY_BATTERY-1_BATBOT,ASSEMBLY_CF-1_CFTOP)
          THE CONTACT CONSTRAINTS HAVE CONVERGED.

 AVERAGE FORCE                      0.211       TIME AVG. FORCE       0.211    
 LARGEST RESIDUAL FORCE             2.758E-05   AT NODE          1   DOF  2
   INSTANCE:                                                                                 
 LARGEST INCREMENT OF DISP.        -0.241       AT NODE          5   DOF  3
   INSTANCE: CF-2                                                                            
 LARGEST CORRECTION TO DISP.        3.303E-02   AT NODE        114   DOF  1
   INSTANCE: CF-2                                                                            
          DISP.    CORRECTION TOO LARGE COMPARED TO DISP.    INCREMENT

 AVERAGE MOMENT                     0.139       TIME AVG. MOMENT      0.139    
 LARGEST RESIDUAL MOMENT           -1.402E-04   AT NODE          1   DOF  6
   INSTANCE:                                                                                 
 LARGEST INCREMENT OF ROTATION     -8.366E-03   AT NODE          7   DOF  5
   INSTANCE: CF-1                                                                            
 LARGEST CORRECTION TO ROTATION     3.003E-04   AT NODE       1357   DOF  6
   INSTANCE: CF-1                                                                            
          ROTATION CORRECTION TOO LARGE COMPARED TO ROTATION INCREMENT

  NUMBER OF EQUATIONS =     30252     NUMBER OF RHS =    1
  NUMBER OF FLOATING PT. OPERATIONS =  7.16E+10

     CHECK POINT   START OF SOLVER    

     CHECK POINT  END OF SOLVER       

       ELAPSED USER TIME (SEC)      =   7.7000    
       ELAPSED SYSTEM TIME (SEC)    =   0.0000    
       ELAPSED TOTAL CPU TIME (SEC) =   7.7000    
       ELAPSED WALLCLOCK TIME (SEC) =          8
 

 ***WARNING: SOLVER PROBLEM. NUMERICAL SINGULARITY WHEN PROCESSING NODE 
             ASSEMBLY.1 D.O.F. 6 RATIO = 17.8960E+09 .

               CONVERGENCE CHECKS FOR EQUILIBRIUM ITERATION     4

   MAX. PENETRATION ERROR -10.6209E-12  AT NODE BATTERY-1.400 OF CONTACT PAIR 
   (ASSEMBLY_BATTERY-1_BATBOT,ASSEMBLY_CF-1_CFTOP)
   MAX. CONTACT FORCE ERROR -16.2814E-09  AT NODE BATTERY-1.357 OF CONTACT PAIR 
   (ASSEMBLY_BATTERY-1_BATBOT,ASSEMBLY_CF-1_CFTOP)
          THE CONTACT CONSTRAINTS HAVE CONVERGED.

 AVERAGE FORCE                      0.211       TIME AVG. FORCE       0.211    
 LARGEST RESIDUAL FORCE            -2.405E-05   AT NODE          1   DOF  2
   INSTANCE:                                                                                 
 LARGEST INCREMENT OF DISP.        -0.241       AT NODE          5   DOF  3
   INSTANCE: CF-2                                                                            
 LARGEST CORRECTION TO DISP.       -2.881E-02   AT NODE        114   DOF  1
   INSTANCE: CF-2                                                                            
          DISP.    CORRECTION TOO LARGE COMPARED TO DISP.    INCREMENT

 AVERAGE MOMENT                     0.139       TIME AVG. MOMENT      0.139    
 LARGEST RESIDUAL MOMENT            1.210E-04   AT NODE          1   DOF  6
   INSTANCE:                                                                                 
 LARGEST INCREMENT OF ROTATION     -8.366E-03   AT NODE          7   DOF  5
   INSTANCE: CF-1                                                                            
 LARGEST CORRECTION TO ROTATION    -2.619E-04   AT NODE       1357   DOF  6
   INSTANCE: CF-1                                                                            
          ROTATION CORRECTION TOO LARGE COMPARED TO ROTATION INCREMENT

  NUMBER OF EQUATIONS =     30252     NUMBER OF RHS =    1
  NUMBER OF FLOATING PT. OPERATIONS =  7.16E+10

     CHECK POINT   START OF SOLVER    

     CHECK POINT  END OF SOLVER       

       ELAPSED USER TIME (SEC)      =   7.8000    
       ELAPSED SYSTEM TIME (SEC)    =  0.10000    
       ELAPSED TOTAL CPU TIME (SEC) =   7.9000    
       ELAPSED WALLCLOCK TIME (SEC) =          7
 

 ***WARNING: SOLVER PROBLEM. NUMERICAL SINGULARITY WHEN PROCESSING NODE 
             ASSEMBLY.1 D.O.F. 6 RATIO = 17.8933E+09 .

               CONVERGENCE CHECKS FOR EQUILIBRIUM ITERATION     5

   MAX. PENETRATION ERROR -6.00057E-12 AT NODE BATTERY-1.326 OF CONTACT PAIR 
   (ASSEMBLY_BATTERY-1_BATBOT,ASSEMBLY_CF-1_CFTOP)
   MAX. CONTACT FORCE ERROR -7.86492E-09 AT NODE BATTERY-1.448 OF CONTACT PAIR 
   (ASSEMBLY_BATTERY-1_BATBOT,ASSEMBLY_CF-1_CFTOP)
          THE CONTACT CONSTRAINTS HAVE CONVERGED.

 AVERAGE FORCE                      0.211       TIME AVG. FORCE       0.211    
 LARGEST RESIDUAL FORCE             2.097E-05   AT NODE          1   DOF  2
   INSTANCE:                                                                                 
 LARGEST INCREMENT OF DISP.        -0.241       AT NODE          5   DOF  3
   INSTANCE: CF-2                                                                            
 LARGEST CORRECTION TO DISP.        2.512E-02   AT NODE        114   DOF  1
   INSTANCE: CF-2                                                                            
          DISP.    CORRECTION TOO LARGE COMPARED TO DISP.    INCREMENT

 AVERAGE MOMENT                     0.139       TIME AVG. MOMENT      0.139    
 LARGEST RESIDUAL MOMENT           -1.065E-04   AT NODE          1   DOF  6
   INSTANCE:                                                                                 
 LARGEST INCREMENT OF ROTATION     -8.366E-03   AT NODE          7   DOF  5
   INSTANCE: CF-1                                                                            
 LARGEST CORRECTION TO ROTATION     2.284E-04   AT NODE       1357   DOF  6
   INSTANCE: CF-1                                                                            
          ROTATION CORRECTION TOO LARGE COMPARED TO ROTATION INCREMENT

  NUMBER OF EQUATIONS =     30252     NUMBER OF RHS =    1
  NUMBER OF FLOATING PT. OPERATIONS =  7.16E+10

     CHECK POINT   START OF SOLVER    

     CHECK POINT  END OF SOLVER       

       ELAPSED USER TIME (SEC)      =   7.8000    
       ELAPSED SYSTEM TIME (SEC)    =   0.0000    
       ELAPSED TOTAL CPU TIME (SEC) =   7.8000    
       ELAPSED WALLCLOCK TIME (SEC) =          8
 

 ***WARNING: SOLVER PROBLEM. NUMERICAL SINGULARITY WHEN PROCESSING NODE 
             ASSEMBLY.1 D.O.F. 6 RATIO = 17.8927E+09 .

               CONVERGENCE CHECKS FOR EQUILIBRIUM ITERATION     6

   MAX. PENETRATION ERROR -6.75911E-12 AT NODE BATTERY-1.400 OF CONTACT PAIR 
   (ASSEMBLY_BATTERY-1_BATBOT,ASSEMBLY_CF-1_CFTOP)
   MAX. CONTACT FORCE ERROR -10.4370E-09  AT NODE BATTERY-1.357 OF CONTACT PAIR 
   (ASSEMBLY_BATTERY-1_BATBOT,ASSEMBLY_CF-1_CFTOP)
          THE CONTACT CONSTRAINTS HAVE CONVERGED.

 AVERAGE FORCE                      0.211       TIME AVG. FORCE       0.211    
 LARGEST RESIDUAL FORCE            -1.829E-05   AT NODE          1   DOF  2
   INSTANCE:                                                                                 
 LARGEST INCREMENT OF DISP.        -0.241       AT NODE          5   DOF  3
   INSTANCE: CF-2                                                                            
 LARGEST CORRECTION TO DISP.       -2.190E-02   AT NODE        114   DOF  1
   INSTANCE: CF-2                                                                            
          DISP.    CORRECTION TOO LARGE COMPARED TO DISP.    INCREMENT

 AVERAGE MOMENT                     0.139       TIME AVG. MOMENT      0.139    
 LARGEST RESIDUAL MOMENT            9.207E-05   AT NODE          1   DOF  6
   INSTANCE:                                                                                 
 LARGEST INCREMENT OF ROTATION     -8.366E-03   AT NODE          7   DOF  5
   INSTANCE: CF-1                                                                            
 LARGEST CORRECTION TO ROTATION    -1.991E-04   AT NODE       1357   DOF  6
   INSTANCE: CF-1                                                                            
          ROTATION CORRECTION TOO LARGE COMPARED TO ROTATION INCREMENT

  NUMBER OF EQUATIONS =     30252     NUMBER OF RHS =    1
  NUMBER OF FLOATING PT. OPERATIONS =  7.16E+10

     CHECK POINT   START OF SOLVER    

     CHECK POINT  END OF SOLVER       

       ELAPSED USER TIME (SEC)      =   7.7000    
       ELAPSED SYSTEM TIME (SEC)    =  0.10000    
       ELAPSED TOTAL CPU TIME (SEC) =   7.8000    
       ELAPSED WALLCLOCK TIME (SEC) =          7
 

 ***WARNING: SOLVER PROBLEM. NUMERICAL SINGULARITY WHEN PROCESSING NODE 
             ASSEMBLY.1 D.O.F. 6 RATIO = 17.8943E+09 .

               CONVERGENCE CHECKS FOR EQUILIBRIUM ITERATION     7

   MAX. PENETRATION ERROR -3.46951E-12 AT NODE BATTERY-1.326 OF CONTACT PAIR 
   (ASSEMBLY_BATTERY-1_BATBOT,ASSEMBLY_CF-1_CFTOP)
   MAX. CONTACT FORCE ERROR -4.53848E-09 AT NODE BATTERY-1.448 OF CONTACT PAIR 
   (ASSEMBLY_BATTERY-1_BATBOT,ASSEMBLY_CF-1_CFTOP)
          THE CONTACT CONSTRAINTS HAVE CONVERGED.

 AVERAGE FORCE                      0.211       TIME AVG. FORCE       0.211    
 LARGEST RESIDUAL FORCE             1.594E-05   AT NODE          1   DOF  2
   INSTANCE:                                                                                 
 LARGEST INCREMENT OF DISP.        -0.241       AT NODE          5   DOF  3
   INSTANCE: CF-2                                                                            
 LARGEST CORRECTION TO DISP.        1.910E-02   AT NODE        114   DOF  1
   INSTANCE: CF-2                                                                            
          DISP.    CORRECTION TOO LARGE COMPARED TO DISP.    INCREMENT

 AVERAGE MOMENT                     0.139       TIME AVG. MOMENT      0.139    
 LARGEST RESIDUAL MOMENT           -8.084E-05   AT NODE          1   DOF  6
   INSTANCE:                                                                                 
 LARGEST INCREMENT OF ROTATION     -8.366E-03   AT NODE          7   DOF  5
   INSTANCE: CF-1                                                                            
 LARGEST CORRECTION TO ROTATION     1.736E-04   AT NODE       1357   DOF  6
   INSTANCE: CF-1                                                                            
          ROTATION CORRECTION TOO LARGE COMPARED TO ROTATION INCREMENT

  NUMBER OF EQUATIONS =     30252     NUMBER OF RHS =    1
  NUMBER OF FLOATING PT. OPERATIONS =  7.16E+10

     CHECK POINT   START OF SOLVER    

     CHECK POINT  END OF SOLVER       

       ELAPSED USER TIME (SEC)      =   7.8000    
       ELAPSED SYSTEM TIME (SEC)    =   0.0000    
       ELAPSED TOTAL CPU TIME (SEC) =   7.8000    
       ELAPSED WALLCLOCK TIME (SEC) =          7
 

 ***WARNING: SOLVER PROBLEM. NUMERICAL SINGULARITY WHEN PROCESSING NODE 
             ASSEMBLY.1 D.O.F. 6 RATIO = 17.8946E+09 .

               CONVERGENCE CHECKS FOR EQUILIBRIUM ITERATION     8

   MAX. PENETRATION ERROR -4.37825E-12 AT NODE BATTERY-1.400 OF CONTACT PAIR 
   (ASSEMBLY_BATTERY-1_BATBOT,ASSEMBLY_CF-1_CFTOP)
   MAX. CONTACT FORCE ERROR -6.81270E-09 AT NODE BATTERY-1.357 OF CONTACT PAIR 
   (ASSEMBLY_BATTERY-1_BATBOT,ASSEMBLY_CF-1_CFTOP)
          THE CONTACT CONSTRAINTS HAVE CONVERGED.

 AVERAGE FORCE                      0.211       TIME AVG. FORCE       0.211    
 LARGEST RESIDUAL FORCE            -1.390E-05   AT NODE          1   DOF  2
   INSTANCE:                                                                                 
 LARGEST INCREMENT OF DISP.        -0.241       AT NODE          5   DOF  3
   INSTANCE: CF-2                                                                            
 LARGEST CORRECTION TO DISP.       -1.665E-02   AT NODE        114   DOF  1
   INSTANCE: CF-2                                                                            
          DISP.    CORRECTION TOO LARGE COMPARED TO DISP.    INCREMENT

 AVERAGE MOMENT                     0.139       TIME AVG. MOMENT      0.139    
 LARGEST RESIDUAL MOMENT            7.007E-05   AT NODE          1   DOF  6
   INSTANCE:                                                                                 
 LARGEST INCREMENT OF ROTATION     -8.366E-03   AT NODE          7   DOF  5
   INSTANCE: CF-1                                                                            
 LARGEST CORRECTION TO ROTATION    -1.514E-04   AT NODE       1357   DOF  6
   INSTANCE: CF-1                                                                            
          ROTATION CORRECTION TOO LARGE COMPARED TO ROTATION INCREMENT

  NUMBER OF EQUATIONS =     30252     NUMBER OF RHS =    1
  NUMBER OF FLOATING PT. OPERATIONS =  7.16E+10

     CHECK POINT   START OF SOLVER    

     CHECK POINT  END OF SOLVER       

       ELAPSED USER TIME (SEC)      =   8.0000    
       ELAPSED SYSTEM TIME (SEC)    =   0.0000    
       ELAPSED TOTAL CPU TIME (SEC) =   8.0000    
       ELAPSED WALLCLOCK TIME (SEC) =          8
 

 ***WARNING: SOLVER PROBLEM. NUMERICAL SINGULARITY WHEN PROCESSING NODE 
             ASSEMBLY.1 D.O.F. 6 RATIO = 17.8942E+09 .

               CONVERGENCE CHECKS FOR EQUILIBRIUM ITERATION     9

   MAX. PENETRATION ERROR 2.16992E-12 AT NODE BATTERY-1.3445 OF CONTACT PAIR 
   (ASSEMBLY_BATTERY-1_BATTOP,ASSEMBLY_CF-2_CFBOT)
   MAX. CONTACT FORCE ERROR -2.61937E-09 AT NODE BATTERY-1.448 OF CONTACT PAIR 
   (ASSEMBLY_BATTERY-1_BATBOT,ASSEMBLY_CF-1_CFTOP)
          THE CONTACT CONSTRAINTS HAVE CONVERGED.

 AVERAGE FORCE                      0.211       TIME AVG. FORCE       0.211    
 LARGEST RESIDUAL FORCE             1.212E-05   AT NODE          1   DOF  2
   INSTANCE:                                                                                 
 LARGEST INCREMENT OF DISP.        -0.241       AT NODE          5   DOF  3
   INSTANCE: CF-2                                                                            
 LARGEST CORRECTION TO DISP.        1.452E-02   AT NODE        114   DOF  1
   INSTANCE: CF-2                                                                            
          DISP.    CORRECTION TOO LARGE COMPARED TO DISP.    INCREMENT

 AVERAGE MOMENT                     0.139       TIME AVG. MOMENT      0.139    
 LARGEST RESIDUAL MOMENT           -6.143E-05   AT NODE          1   DOF  6
   INSTANCE:                                                                                 
 LARGEST INCREMENT OF ROTATION     -8.366E-03   AT NODE          7   DOF  5
   INSTANCE: CF-1                                                                            
 LARGEST CORRECTION TO ROTATION     1.320E-04   AT NODE       1357   DOF  6
   INSTANCE: CF-1                                                                            
          ROTATION CORRECTION TOO LARGE COMPARED TO ROTATION INCREMENT

  NUMBER OF EQUATIONS =     30252     NUMBER OF RHS =    1
  NUMBER OF FLOATING PT. OPERATIONS =  7.16E+10

     CHECK POINT   START OF SOLVER    

     CHECK POINT  END OF SOLVER       

       ELAPSED USER TIME (SEC)      =   8.0000    
       ELAPSED SYSTEM TIME (SEC)    =   0.0000    
       ELAPSED TOTAL CPU TIME (SEC) =   8.0000    
       ELAPSED WALLCLOCK TIME (SEC) =          8
 

 ***WARNING: SOLVER PROBLEM. NUMERICAL SINGULARITY WHEN PROCESSING NODE 
             ASSEMBLY.1 D.O.F. 6 RATIO = 17.8951E+09 .

               CONVERGENCE CHECKS FOR EQUILIBRIUM ITERATION    10

   MAX. PENETRATION ERROR -2.88967E-12 AT NODE BATTERY-1.400 OF CONTACT PAIR 
   (ASSEMBLY_BATTERY-1_BATBOT,ASSEMBLY_CF-1_CFTOP)
   MAX. CONTACT FORCE ERROR -4.53183E-09 AT NODE BATTERY-1.357 OF CONTACT PAIR 
   (ASSEMBLY_BATTERY-1_BATBOT,ASSEMBLY_CF-1_CFTOP)
          THE CONTACT CONSTRAINTS HAVE CONVERGED.

 AVERAGE FORCE                      0.211       TIME AVG. FORCE       0.211    
 LARGEST RESIDUAL FORCE            -1.057E-05   AT NODE          1   DOF  2
   INSTANCE:                                                                                 
 LARGEST INCREMENT OF DISP.        -0.241       AT NODE          5   DOF  3
   INSTANCE: CF-2                                                                            
 LARGEST CORRECTION TO DISP.       -1.266E-02   AT NODE        114   DOF  1
   INSTANCE: CF-2                                                                            
          DISP.    CORRECTION TOO LARGE COMPARED TO DISP.    INCREMENT

 AVERAGE MOMENT                     0.139       TIME AVG. MOMENT      0.139    
 LARGEST RESIDUAL MOMENT            5.332E-05   AT NODE          1   DOF  6
   INSTANCE:                                                                                 
 LARGEST INCREMENT OF ROTATION     -8.366E-03   AT NODE          7   DOF  5
   INSTANCE: CF-1                                                                            
 LARGEST CORRECTION TO ROTATION    -1.151E-04   AT NODE       1357   DOF  6
   INSTANCE: CF-1                                                                            
          ROTATION CORRECTION TOO LARGE COMPARED TO ROTATION INCREMENT

  NUMBER OF EQUATIONS =     30252     NUMBER OF RHS =    1
  NUMBER OF FLOATING PT. OPERATIONS =  7.16E+10

     CHECK POINT   START OF SOLVER    

     CHECK POINT  END OF SOLVER       

       ELAPSED USER TIME (SEC)      =   7.8000    
       ELAPSED SYSTEM TIME (SEC)    =   0.0000    
       ELAPSED TOTAL CPU TIME (SEC) =   7.8000    
       ELAPSED WALLCLOCK TIME (SEC) =          8
 

 ***WARNING: SOLVER PROBLEM. NUMERICAL SINGULARITY WHEN PROCESSING NODE 
             ASSEMBLY.1 D.O.F. 6 RATIO = 17.8946E+09 .

               CONVERGENCE CHECKS FOR EQUILIBRIUM ITERATION    11

   MAX. PENETRATION ERROR 1.70773E-12 AT NODE BATTERY-1.3445 OF CONTACT PAIR 
   (ASSEMBLY_BATTERY-1_BATTOP,ASSEMBLY_CF-2_CFBOT)
   MAX. CONTACT FORCE ERROR 1.92956E-09 AT NODE BATTERY-1.3445 OF CONTACT PAIR 
   (ASSEMBLY_BATTERY-1_BATTOP,ASSEMBLY_CF-2_CFBOT)
          THE CONTACT CONSTRAINTS HAVE CONVERGED.

 AVERAGE FORCE                      0.211       TIME AVG. FORCE       0.211    
 LARGEST RESIDUAL FORCE             9.219E-06   AT NODE          1   DOF  2
   INSTANCE:                                                                                 
 LARGEST INCREMENT OF DISP.        -0.241       AT NODE          5   DOF  3
   INSTANCE: CF-2                                                                            
 LARGEST CORRECTION TO DISP.        1.104E-02   AT NODE        114   DOF  1
   INSTANCE: CF-2                                                                            
          DISP.    CORRECTION TOO LARGE COMPARED TO DISP.    INCREMENT

 AVERAGE MOMENT                     0.139       TIME AVG. MOMENT      0.139    
 LARGEST RESIDUAL MOMENT           -4.668E-05   AT NODE          1   DOF  6
   INSTANCE:                                                                                 
 LARGEST INCREMENT OF ROTATION     -8.366E-03   AT NODE          7   DOF  5
   INSTANCE: CF-1                                                                            
 LARGEST CORRECTION TO ROTATION     1.004E-04   AT NODE       1357   DOF  6
   INSTANCE: CF-1                                                                            
          ROTATION CORRECTION TOO LARGE COMPARED TO ROTATION INCREMENT

  NUMBER OF EQUATIONS =     30252     NUMBER OF RHS =    1
  NUMBER OF FLOATING PT. OPERATIONS =  7.16E+10

     CHECK POINT   START OF SOLVER    

     CHECK POINT  END OF SOLVER       

       ELAPSED USER TIME (SEC)      =   7.8000    
       ELAPSED SYSTEM TIME (SEC)    =  0.10000    
       ELAPSED TOTAL CPU TIME (SEC) =   7.9000    
       ELAPSED WALLCLOCK TIME (SEC) =          8
 

 ***WARNING: SOLVER PROBLEM. NUMERICAL SINGULARITY WHEN PROCESSING NODE 
             ASSEMBLY.1 D.O.F. 6 RATIO = 17.8973E+09 .

               CONVERGENCE CHECKS FOR EQUILIBRIUM ITERATION    12

   MAX. PENETRATION ERROR -1.94372E-12 AT NODE BATTERY-1.400 OF CONTACT PAIR 
   (ASSEMBLY_BATTERY-1_BATBOT,ASSEMBLY_CF-1_CFTOP)
   MAX. CONTACT FORCE ERROR -3.07184E-09 AT NODE BATTERY-1.357 OF CONTACT PAIR 
   (ASSEMBLY_BATTERY-1_BATBOT,ASSEMBLY_CF-1_CFTOP)
          THE CONTACT CONSTRAINTS HAVE CONVERGED.

 AVERAGE FORCE                      0.211       TIME AVG. FORCE       0.211    
 LARGEST RESIDUAL FORCE            -8.041E-06   AT NODE          1   DOF  2
   INSTANCE:                                                                                 
 LARGEST INCREMENT OF DISP.        -0.241       AT NODE          5   DOF  3
   INSTANCE: CF-2                                                                            
 LARGEST CORRECTION TO DISP.       -9.630E-03   AT NODE        114   DOF  1
   INSTANCE: CF-2                                                                            
          DISP.    CORRECTION TOO LARGE COMPARED TO DISP.    INCREMENT

 AVERAGE MOMENT                     0.139       TIME AVG. MOMENT      0.139    
 LARGEST RESIDUAL MOMENT            4.057E-05   AT NODE          1   DOF  6
   INSTANCE:                                                                                 
 LARGEST INCREMENT OF ROTATION     -8.366E-03   AT NODE          7   DOF  5
   INSTANCE: CF-1                                                                            
 LARGEST CORRECTION TO ROTATION    -8.755E-05   AT NODE       1357   DOF  6
   INSTANCE: CF-1                                                                            
 ESTIMATE OF ROTATION CORRECTION    7.609E-05
 MOMENT    EQUILIB. ACCEPTED BASED ON SMALL RESIDUAL AND ESTIMATED CORRECTION

  NUMBER OF EQUATIONS =     30252     NUMBER OF RHS =    1
  NUMBER OF FLOATING PT. OPERATIONS =  7.16E+10

     CHECK POINT   START OF SOLVER    

     CHECK POINT  END OF SOLVER       

       ELAPSED USER TIME (SEC)      =   7.7000    
       ELAPSED SYSTEM TIME (SEC)    =   0.0000    
       ELAPSED TOTAL CPU TIME (SEC) =   7.7000    
       ELAPSED WALLCLOCK TIME (SEC) =          8
 

 ***WARNING: SOLVER PROBLEM. NUMERICAL SINGULARITY WHEN PROCESSING NODE 
             ASSEMBLY.1 D.O.F. 6 RATIO = 17.8936E+09 .

               CONVERGENCE CHECKS FOR EQUILIBRIUM ITERATION    13

   MAX. PENETRATION ERROR 1.33149E-12 AT NODE BATTERY-1.3445 OF CONTACT PAIR 
   (ASSEMBLY_BATTERY-1_BATTOP,ASSEMBLY_CF-2_CFBOT)
   MAX. CONTACT FORCE ERROR 1.50445E-09 AT NODE BATTERY-1.3445 OF CONTACT PAIR 
   (ASSEMBLY_BATTERY-1_BATTOP,ASSEMBLY_CF-2_CFBOT)
          THE CONTACT CONSTRAINTS HAVE CONVERGED.

 AVERAGE FORCE                      0.211       TIME AVG. FORCE       0.211    
 LARGEST RESIDUAL FORCE             7.012E-06   AT NODE          1   DOF  2
   INSTANCE:                                                                                 
 LARGEST INCREMENT OF DISP.        -0.241       AT NODE          5   DOF  3
   INSTANCE: CF-2                                                                            
 LARGEST CORRECTION TO DISP.        8.399E-03   AT NODE        114   DOF  1
   INSTANCE: CF-2                                                                            
          DISP.    CORRECTION TOO LARGE COMPARED TO DISP.    INCREMENT

 AVERAGE MOMENT                     0.139       TIME AVG. MOMENT      0.139    
 LARGEST RESIDUAL MOMENT           -3.549E-05   AT NODE          1   DOF  6
[...]
   INSTANCE:                                                                                 
 LARGEST INCREMENT OF ROTATION     -8.777E-05   AT NODE        201   DOF  6
   INSTANCE: CF-1                                                                            
 LARGEST CORRECTION TO ROTATION    -8.777E-05   AT NODE        201   DOF  6
   INSTANCE: CF-1                                                                            
          MOMENT    EQUILIBRIUM NOT ACHIEVED WITHIN TOLERANCE.

  NUMBER OF EQUATIONS =     30252     NUMBER OF RHS =    1
  NUMBER OF FLOATING PT. OPERATIONS =  8.65E+10

     CHECK POINT   START OF SOLVER    

     CHECK POINT  END OF SOLVER       

       ELAPSED USER TIME (SEC)      =   9.3000    
       ELAPSED SYSTEM TIME (SEC)    =   0.0000    
       ELAPSED TOTAL CPU TIME (SEC) =   9.3000    
       ELAPSED WALLCLOCK TIME (SEC) =          9
 

 ***WARNING: SOLVER PROBLEM. NUMERICAL SINGULARITY WHEN PROCESSING NODE 
             ASSEMBLY.1 D.O.F. 6 RATIO = 824.085E+09  .

               CONVERGENCE CHECKS FOR EQUILIBRIUM ITERATION     1

   MAX. PENETRATION ERROR -3.04454E-12 AT NODE BATTERY-1.3445 OF CONTACT PAIR 
   (ASSEMBLY_BATTERY-1_BATTOP,ASSEMBLY_CF-2_CFBOT)
   MAX. CONTACT FORCE ERROR -5.34304E-09 AT NODE BATTERY-1.357 OF CONTACT PAIR 
   (ASSEMBLY_BATTERY-1_BATBOT,ASSEMBLY_CF-1_CFTOP)
          THE CONTACT CONSTRAINTS HAVE CONVERGED.

 AVERAGE FORCE                      0.108       TIME AVG. FORCE       8.056E-02
 LARGEST RESIDUAL FORCE            -9.941E-06   AT NODE          1   DOF  2
   INSTANCE:                                                                                 
 LARGEST INCREMENT OF DISP.         2.719E-02   AT NODE          7   DOF  1
   INSTANCE: CF-1                                                                            
 LARGEST CORRECTION TO DISP.        3.649E-02   AT NODE          4   DOF  1
   INSTANCE: CF-1                                                                            
          DISP.    CORRECTION TOO LARGE COMPARED TO DISP.    INCREMENT

 AVERAGE MOMENT                     3.667E-02   TIME AVG. MOMENT      3.586E-02
 LARGEST RESIDUAL MOMENT           -3.013E-05   AT NODE          1   DOF  6
   INSTANCE:                                                                                 
 LARGEST INCREMENT OF ROTATION      2.482E-04   AT NODE        174   DOF  6
   INSTANCE: CF-1                                                                            
 LARGEST CORRECTION TO ROTATION     3.318E-04   AT NODE       1353   DOF  6
   INSTANCE: CF-1                                                                            
          ROTATION CORRECTION TOO LARGE COMPARED TO ROTATION INCREMENT

  NUMBER OF EQUATIONS =     30252     NUMBER OF RHS =    1
  NUMBER OF FLOATING PT. OPERATIONS =  8.65E+10

     CHECK POINT   START OF SOLVER    

     CHECK POINT  END OF SOLVER       

       ELAPSED USER TIME (SEC)      =   9.4000    
       ELAPSED SYSTEM TIME (SEC)    =   0.0000    
       ELAPSED TOTAL CPU TIME (SEC) =   9.4000    
       ELAPSED WALLCLOCK TIME (SEC) =          9
 

 ***WARNING: SOLVER PROBLEM. NUMERICAL SINGULARITY WHEN PROCESSING NODE 
             ASSEMBLY.1 D.O.F. 6 RATIO = 820.528E+09  .

               CONVERGENCE CHECKS FOR EQUILIBRIUM ITERATION     2

   MAX. PENETRATION ERROR -10.0281E-12  AT NODE BATTERY-1.362 OF CONTACT PAIR 
   (ASSEMBLY_BATTERY-1_BATBOT,ASSEMBLY_CF-1_CFTOP)
   MAX. CONTACT FORCE ERROR -12.9457E-09  AT NODE BATTERY-1.449 OF CONTACT PAIR 
   (ASSEMBLY_BATTERY-1_BATBOT,ASSEMBLY_CF-1_CFTOP)
          THE CONTACT CONSTRAINTS HAVE CONVERGED.

 AVERAGE FORCE                      0.108       TIME AVG. FORCE       8.056E-02
 LARGEST RESIDUAL FORCE             3.306E-05   AT NODE          1   DOF  2
   INSTANCE:                                                                                 
 LARGEST INCREMENT OF DISP.        -9.429E-02   AT NODE          4   DOF  1
   INSTANCE: CF-1                                                                            
 LARGEST CORRECTION TO DISP.       -0.121       AT NODE        114   DOF  1
   INSTANCE: CF-2                                                                            
          DISP.    CORRECTION TOO LARGE COMPARED TO DISP.    INCREMENT

 AVERAGE MOMENT                     3.667E-02   TIME AVG. MOMENT      3.586E-02
 LARGEST RESIDUAL MOMENT            1.004E-04   AT NODE          1   DOF  6
   INSTANCE:                                                                                 
 LARGEST INCREMENT OF ROTATION     -8.592E-04   AT NODE        201   DOF  6
   INSTANCE: CF-1                                                                            
 LARGEST CORRECTION TO ROTATION    -1.103E-03   AT NODE       1357   DOF  6
   INSTANCE: CF-1                                                                            
          ROTATION CORRECTION TOO LARGE COMPARED TO ROTATION INCREMENT

  NUMBER OF EQUATIONS =     30252     NUMBER OF RHS =    1
  NUMBER OF FLOATING PT. OPERATIONS =  8.65E+10

     CHECK POINT   START OF SOLVER    

     CHECK POINT  END OF SOLVER       

       ELAPSED USER TIME (SEC)      =   9.6000    
       ELAPSED SYSTEM TIME (SEC)    =   0.0000    
       ELAPSED TOTAL CPU TIME (SEC) =   9.6000    
       ELAPSED WALLCLOCK TIME (SEC) =          9
 

 ***WARNING: SOLVER PROBLEM. NUMERICAL SINGULARITY WHEN PROCESSING NODE 
             ASSEMBLY.1 D.O.F. 6 RATIO = 818.572E+09  .

               CONVERGENCE CHECKS FOR EQUILIBRIUM ITERATION     3

   MAX. PENETRATION ERROR -125.593E-12   AT NODE BATTERY-1.400 OF CONTACT PAIR 
   (ASSEMBLY_BATTERY-1_BATBOT,ASSEMBLY_CF-1_CFTOP)
   MAX. CONTACT FORCE ERROR -200.497E-09   AT NODE BATTERY-1.357 OF CONTACT 
   PAIR (ASSEMBLY_BATTERY-1_BATBOT,ASSEMBLY_CF-1_CFTOP)
          THE CONTACT CONSTRAINTS HAVE CONVERGED.

 AVERAGE FORCE                      0.108       TIME AVG. FORCE       8.055E-02
 LARGEST RESIDUAL FORCE            -1.095E-04   AT NODE          1   DOF  2
   INSTANCE:                                                                                 
 LARGEST INCREMENT OF DISP.         0.308       AT NODE          7   DOF  1
   INSTANCE: CF-1                                                                            
 LARGEST CORRECTION TO DISP.        0.402       AT NODE        114   DOF  1
   INSTANCE: CF-2                                                                            
          DISP.    CORRECTION TOO LARGE COMPARED TO DISP.    INCREMENT

 AVERAGE MOMENT                     3.667E-02   TIME AVG. MOMENT      3.586E-02
 LARGEST RESIDUAL MOMENT           -3.302E-04   AT NODE          1   DOF  6
   INSTANCE:                                                                                 
 LARGEST INCREMENT OF ROTATION      2.800E-03   AT NODE        174   DOF  6
   INSTANCE: CF-1                                                                            
 LARGEST CORRECTION TO ROTATION     3.655E-03   AT NODE       1357   DOF  6
   INSTANCE: CF-1                                                                            
          MOMENT    EQUILIBRIUM NOT ACHIEVED WITHIN TOLERANCE.

  NUMBER OF EQUATIONS =     30252     NUMBER OF RHS =    1
  NUMBER OF FLOATING PT. OPERATIONS =  8.65E+10

     CHECK POINT   START OF SOLVER    

     CHECK POINT  END OF SOLVER       

       ELAPSED USER TIME (SEC)      =   9.4000    
       ELAPSED SYSTEM TIME (SEC)    =   0.0000    
       ELAPSED TOTAL CPU TIME (SEC) =   9.4000    
       ELAPSED WALLCLOCK TIME (SEC) =          9
 

 ***WARNING: SOLVER PROBLEM. NUMERICAL SINGULARITY WHEN PROCESSING NODE 
             ASSEMBLY.1 D.O.F. 6 RATIO = 820.118E+09  .

               CONVERGENCE CHECKS FOR EQUILIBRIUM ITERATION     4

   MAX. PENETRATION ERROR -1.22490E-09 AT NODE BATTERY-1.362 OF CONTACT PAIR 
   (ASSEMBLY_BATTERY-1_BATBOT,ASSEMBLY_CF-1_CFTOP)
   MAX. CONTACT FORCE ERROR -1.61362E-06 AT NODE BATTERY-1.449 OF CONTACT PAIR 
   (ASSEMBLY_BATTERY-1_BATBOT,ASSEMBLY_CF-1_CFTOP)
          THE CONTACT CONSTRAINTS HAVE CONVERGED.

 AVERAGE FORCE                      0.108       TIME AVG. FORCE       8.056E-02
 LARGEST RESIDUAL FORCE             5.579E-04   AT NODE          1   DOF  3
   INSTANCE:                                                                                 
 LARGEST INCREMENT OF DISP.         -1.03       AT NODE          4   DOF  1
   INSTANCE: CF-1                                                                            
 LARGEST CORRECTION TO DISP.        -1.33       AT NODE        114   DOF  1
   INSTANCE: CF-2                                                                            
          FORCE     EQUILIBRIUM NOT ACHIEVED WITHIN TOLERANCE.

 AVERAGE MOMENT                     3.667E-02   TIME AVG. MOMENT      3.586E-02
 LARGEST RESIDUAL MOMENT            1.919E-03   AT NODE          1   DOF  4
   INSTANCE:                                                                                 
 LARGEST INCREMENT OF ROTATION     -9.327E-03   AT NODE        201   DOF  6
   INSTANCE: CF-1                                                                            
 LARGEST CORRECTION TO ROTATION    -1.212E-02   AT NODE       1357   DOF  6
   INSTANCE: CF-1                                                                            
          MOMENT    EQUILIBRIUM NOT ACHIEVED WITHIN TOLERANCE.
 

 ***NOTE: THE SOLUTION APPEARS TO BE DIVERGING. CONVERGENCE IS JUDGED UNLIKELY.


  INCREMENT     2 STARTS. ATTEMPT NUMBER  5, TIME INCREMENT  9.766E-04

  NUMBER OF EQUATIONS =     30252     NUMBER OF RHS =    1
  NUMBER OF FLOATING PT. OPERATIONS =  8.65E+10

     CHECK POINT   START OF SOLVER    

     CHECK POINT  END OF SOLVER       

       ELAPSED USER TIME (SEC)      =   9.5000    
       ELAPSED SYSTEM TIME (SEC)    =  0.10000    
       ELAPSED TOTAL CPU TIME (SEC) =   9.6000    
       ELAPSED WALLCLOCK TIME (SEC) =         10
 

 ***WARNING: SOLVER PROBLEM. NUMERICAL SINGULARITY WHEN PROCESSING NODE 
             ASSEMBLY.1 D.O.F. 6 RATIO = 858.896E+09  .

               CONVERGENCE CHECKS FOR EQUILIBRIUM ITERATION     1

   MAX. PENETRATION ERROR 229.157E-12   AT NODE BATTERY-1.362 OF CONTACT PAIR 
   (ASSEMBLY_BATTERY-1_BATBOT,ASSEMBLY_CF-1_CFTOP)
   MAX. CONTACT FORCE ERROR 282.418E-09   AT NODE BATTERY-1.349 OF CONTACT PAIR 
   (ASSEMBLY_BATTERY-1_BATBOT,ASSEMBLY_CF-1_CFTOP)
          THE CONTACT CONSTRAINTS HAVE CONVERGED.

 AVERAGE FORCE                      0.107       TIME AVG. FORCE       7.975E-02
 LARGEST RESIDUAL FORCE             4.774E-06   AT NODE          1   DOF  2
   INSTANCE:                                                                                 
 LARGEST INCREMENT OF DISP.        -1.880E-02   AT NODE          4   DOF  1
   INSTANCE: CF-1                                                                            
 LARGEST CORRECTION TO DISP.       -1.880E-02   AT NODE          4   DOF  1
   INSTANCE: CF-1                                                                            
 ESTIMATE OF DISP.    CORRECTION    9.249E-07
 FORCE     EQUILIB. ACCEPTED BASED ON SMALL RESIDUAL AND ESTIMATED CORRECTION

 AVERAGE MOMENT                     3.624E-02   TIME AVG. MOMENT      3.564E-02
 LARGEST RESIDUAL MOMENT           -2.931E-05   AT NODE          1   DOF  6
   INSTANCE:                                                                                 
 LARGEST INCREMENT OF ROTATION     -1.715E-04   AT NODE        201   DOF  6
   INSTANCE: CF-1                                                                            
 LARGEST CORRECTION TO ROTATION    -1.715E-04   AT NODE        201   DOF  6
   INSTANCE: CF-1                                                                            
          ROTATION CORRECTION TOO LARGE COMPARED TO ROTATION INCREMENT

  NUMBER OF EQUATIONS =     30252     NUMBER OF RHS =    1
  NUMBER OF FLOATING PT. OPERATIONS =  8.65E+10

     CHECK POINT   START OF SOLVER    

     CHECK POINT  END OF SOLVER       

       ELAPSED USER TIME (SEC)      =   9.2000    
       ELAPSED SYSTEM TIME (SEC)    =   0.0000    
       ELAPSED TOTAL CPU TIME (SEC) =   9.2000    
       ELAPSED WALLCLOCK TIME (SEC) =          9
 

 ***WARNING: SOLVER PROBLEM. NUMERICAL SINGULARITY WHEN PROCESSING NODE 
             ASSEMBLY.1 D.O.F. 6 RATIO = 851.661E+09  .

               CONVERGENCE CHECKS FOR EQUILIBRIUM ITERATION     2

   MAX. PENETRATION ERROR -6.42734E-12 AT NODE BATTERY-1.400 OF CONTACT PAIR 
   (ASSEMBLY_BATTERY-1_BATBOT,ASSEMBLY_CF-1_CFTOP)
   MAX. CONTACT FORCE ERROR -11.1140E-09  AT NODE BATTERY-1.357 OF CONTACT PAIR 
   (ASSEMBLY_BATTERY-1_BATBOT,ASSEMBLY_CF-1_CFTOP)
          THE CONTACT CONSTRAINTS HAVE CONVERGED.

 AVERAGE FORCE                      0.107       TIME AVG. FORCE       7.975E-02
 LARGEST RESIDUAL FORCE            -1.733E-05   AT NODE          1   DOF  2
   INSTANCE:                                                                                 
 LARGEST INCREMENT OF DISP.         4.592E-02   AT NODE          7   DOF  1
   INSTANCE: CF-1                                                                            
 LARGEST CORRECTION TO DISP.        6.468E-02   AT NODE        114   DOF  1
   INSTANCE: CF-2                                                                            
          DISP.    CORRECTION TOO LARGE COMPARED TO DISP.    INCREMENT

 AVERAGE MOMENT                     3.624E-02   TIME AVG. MOMENT      3.564E-02
 LARGEST RESIDUAL MOMENT           -5.249E-05   AT NODE          1   DOF  6
   INSTANCE:                                                                                 
 LARGEST INCREMENT OF ROTATION      4.177E-04   AT NODE        174   DOF  6
   INSTANCE: CF-1                                                                            
 LARGEST CORRECTION TO ROTATION     5.880E-04   AT NODE       1357   DOF  6
   INSTANCE: CF-1                                                                            
          ROTATION CORRECTION TOO LARGE COMPARED TO ROTATION INCREMENT

  NUMBER OF EQUATIONS =     30252     NUMBER OF RHS =    1
  NUMBER OF FLOATING PT. OPERATIONS =  8.65E+10

     CHECK POINT   START OF SOLVER    

     CHECK POINT  END OF SOLVER       

       ELAPSED USER TIME (SEC)      =   9.3000    
       ELAPSED SYSTEM TIME (SEC)    =  0.10000    
       ELAPSED TOTAL CPU TIME (SEC) =   9.4000    
       ELAPSED WALLCLOCK TIME (SEC) =          9
 

 ***WARNING: SOLVER PROBLEM. NUMERICAL SINGULARITY WHEN PROCESSING NODE 
             ASSEMBLY.1 D.O.F. 6 RATIO = 847.803E+09  .

               CONVERGENCE CHECKS FOR EQUILIBRIUM ITERATION     3

   MAX. PENETRATION ERROR -31.3476E-12  AT NODE BATTERY-1.362 OF CONTACT PAIR 
   (ASSEMBLY_BATTERY-1_BATBOT,ASSEMBLY_CF-1_CFTOP)
   MAX. CONTACT FORCE ERROR -40.8597E-09  AT NODE BATTERY-1.449 OF CONTACT PAIR 
   (ASSEMBLY_BATTERY-1_BATBOT,ASSEMBLY_CF-1_CFTOP)
          THE CONTACT CONSTRAINTS HAVE CONVERGED.

 AVERAGE FORCE                      0.107       TIME AVG. FORCE       7.975E-02
 LARGEST RESIDUAL FORCE             5.800E-05   AT NODE          1   DOF  2
   INSTANCE:                                                                                 
 LARGEST INCREMENT OF DISP.        -0.171       AT NODE          4   DOF  1
   INSTANCE: CF-1                                                                            
 LARGEST CORRECTION TO DISP.       -0.217       AT NODE        114   DOF  1
   INSTANCE: CF-2                                                                            
          DISP.    CORRECTION TOO LARGE COMPARED TO DISP.    INCREMENT

 AVERAGE MOMENT                     3.624E-02   TIME AVG. MOMENT      3.564E-02
 LARGEST RESIDUAL MOMENT            1.764E-04   AT NODE          1   DOF  6
   INSTANCE:                                                                                 
 LARGEST INCREMENT OF ROTATION     -1.552E-03   AT NODE        201   DOF  6
   INSTANCE: CF-1                                                                            
 LARGEST CORRECTION TO ROTATION    -1.968E-03   AT NODE       1357   DOF  6
   INSTANCE: CF-1                                                                            
          ROTATION CORRECTION TOO LARGE COMPARED TO ROTATION INCREMENT

  NUMBER OF EQUATIONS =     30252     NUMBER OF RHS =    1
  NUMBER OF FLOATING PT. OPERATIONS =  8.65E+10

     CHECK POINT   START OF SOLVER    

     CHECK POINT  END OF SOLVER       

       ELAPSED USER TIME (SEC)      =   9.3000    
       ELAPSED SYSTEM TIME (SEC)    =   0.0000    
       ELAPSED TOTAL CPU TIME (SEC) =   9.3000    
       ELAPSED WALLCLOCK TIME (SEC) =          9
 

 ***WARNING: SOLVER PROBLEM. NUMERICAL SINGULARITY WHEN PROCESSING NODE 
             ASSEMBLY.1 D.O.F. 6 RATIO = 856.270E+09  .

               CONVERGENCE CHECKS FOR EQUILIBRIUM ITERATION     4

   MAX. PENETRATION ERROR -370.929E-12   AT NODE BATTERY-1.400 OF CONTACT PAIR 
   (ASSEMBLY_BATTERY-1_BATBOT,ASSEMBLY_CF-1_CFTOP)
   MAX. CONTACT FORCE ERROR -583.683E-09   AT NODE BATTERY-1.357 OF CONTACT 
   PAIR (ASSEMBLY_BATTERY-1_BATBOT,ASSEMBLY_CF-1_CFTOP)
          THE CONTACT CONSTRAINTS HAVE CONVERGED.

 AVERAGE FORCE                      0.107       TIME AVG. FORCE       7.975E-02
 LARGEST RESIDUAL FORCE            -1.958E-04   AT NODE          1   DOF  2
   INSTANCE:                                                                                 
 LARGEST INCREMENT OF DISP.         0.560       AT NODE          7   DOF  1
   INSTANCE: CF-1                                                                            
 LARGEST CORRECTION TO DISP.        0.731       AT NODE        114   DOF  1
   INSTANCE: CF-2                                                                            
          DISP.    CORRECTION TOO LARGE COMPARED TO DISP.    INCREMENT

 AVERAGE MOMENT                     3.624E-02   TIME AVG. MOMENT      3.564E-02
 LARGEST RESIDUAL MOMENT           -5.869E-04   AT NODE          1   DOF  6
   INSTANCE:                                                                                 
 LARGEST INCREMENT OF ROTATION      5.094E-03   AT NODE        174   DOF  6
   INSTANCE: CF-1                                                                            
 LARGEST CORRECTION TO ROTATION     6.645E-03   AT NODE       1357   DOF  6
   INSTANCE: CF-1                                                                            
          MOMENT    EQUILIBRIUM NOT ACHIEVED WITHIN TOLERANCE.
 

 ***NOTE: THE SOLUTION APPEARS TO BE DIVERGING. CONVERGENCE IS JUDGED UNLIKELY.
 

 ***ERROR: TOO MANY ATTEMPTS MADE FOR THIS INCREMENT

 ***ERROR: THE ANALYSIS HAS BEEN TERMINATED DUE TO PREVIOUS ERRORS. ALL OUTPUT 
           REQUESTS HAVE BEEN WRITTEN FOR THE LAST CONVERGED INCREMENT.



     ANALYSIS SUMMARY:
     TOTAL OF          2  INCREMENTS
                       6  CUTBACKS IN AUTOMATIC INCREMENTATION
                      79  ITERATIONS INCLUDING CONTACT ITERATIONS IF PRESENT
                      79  PASSES THROUGH THE EQUATION SOLVER OF WHICH 
                      79  INVOLVE MATRIX DECOMPOSITION, INCLUDING
                       0  DECOMPOSITION(S) OF THE MASS MATRIX
                       1  REORDERING OF EQUATIONS TO MINIMIZE WAVEFRONT
                       0  ADDITIONAL RESIDUAL EVALUATIONS FOR LINE SEARCHES
                       0  ADDITIONAL OPERATOR EVALUATIONS FOR LINE SEARCHES
                       0  WARNING MESSAGES DURING USER INPUT PROCESSING
                      81  WARNING MESSAGES DURING ANALYSIS
                      79  ANALYSIS WARNINGS ARE NUMERICAL PROBLEM MESSAGES
                       0  ANALYSIS WARNINGS ARE NEGATIVE EIGENVALUE MESSAGES
                       2  ERROR MESSAGES



     JOB TIME SUMMARY
       USER TIME (SEC)      =   1012.0    
       SYSTEM TIME (SEC)    =   12.400    
       TOTAL CPU TIME (SEC) =   1024.4    
       WALLCLOCK TIME (SEC) =       1032
