 Abaqus/Standard 3DEXPERIENCE R2019x                  DATE 29-May-2019 TIME 17:01:43
 SUMMARY OF JOB INFORMATION:
 STEP  INC ATT SEVERE EQUIL TOTAL  TOTAL      STEP       INC OF       DOF    IF
               DISCON ITERS ITERS  TIME/    TIME/LPF    TIME/LPF    MONITOR RIKS
               ITERS               FREQ
   1     1   1U   19    16    35  0.000      0.000      1.000     
   1     1   2    18     1    19  0.250      0.250      0.2500    
   1     2   1U    3     4     7  0.250      0.250      0.2500    
   1     2   2U    1     4     5  0.250      0.250      0.06250   
   1     2   3U    1     4     5  0.250      0.250      0.01563   
   1     2   4U    1     4     5  0.250      0.250      0.003906  
   1     2   5U    1     4     5  0.250      0.250      0.0009766 
                          
 THE ANALYSIS HAS NOT BEEN COMPLETED
