*Heading
** Job name: Job-6 Model name: Model-1
** Generated by: Abaqus/CAE 2019
*Preprint, echo=NO, model=NO, history=NO, contact=NO
**
** PARTS
**
*Part, name=Battery
*Node
      1,   14.1074104,   20.0309086,           0.
      2,   11.9860897,   20.9095879,           0.
      3,   9.86476994,   20.0309086,           0.
      4,   8.98608971,   17.9095879,           0.
      5,   9.86476994,   15.7882681,           0.
      6,   11.9860897,   14.9095888,           0.
      7,   14.1074104,   15.7882681,           0.
      8,   14.9860897,   17.9095879,           0.
      9,   86.2977219,   66.9556122,           0.
     10,   84.3790665,   68.8742676,           0.
     11,   81.7581329,   69.5765457,           0.
     12,   79.1371994,   68.8742676,           0.
     13,    77.218544,   66.9556122,           0.
     14,   76.5162659,   64.3346786,           0.
     15,    77.218544,   61.7137451,           0.
     16,   79.1371994,   59.7950897,           0.
     17,   81.7581329,   59.0928116,           0.
     18,   84.3790665,   59.7950897,           0.
     19,   86.2977219,   61.7137451,           0.
     20,          87.,   64.3346786,           0.
** ... 4276 like lines cut
*Element, type=C3D8R
   1,   51,  207,  208,   52, 1483, 1639, 1640, 1484
   2,  335,  296,  192,  203, 1767, 1728, 1624, 1635
   3,  669,  664,  600,  598, 2101, 2096, 2032, 2030
   4, 1245,  165,    2,  280, 2677, 1597, 1434, 1712
   5,   78,  225,  226,   79, 1510, 1657, 1658, 1511
   6,    4,    3,  451,  166, 1436, 1435, 1883, 1598
   7,  448,  300,  350,  451, 1880, 1732, 1782, 1883
   8,   76,  202,  186,   77, 1508, 1634, 1618, 1509
   9,   72,  187,  188,   73, 1504, 1619, 1620, 1505
  10,  393,  168,  349,  297, 1825, 1600, 1781, 1729
  11,   33,   32,   93,   92, 1465, 1464, 1525, 1524
  12,  393,  167,    6,    5, 1825, 1599, 1438, 1437
  13,   71,  189,  187,   72, 1503, 1621, 1619, 1504
  14,   70,  190,  189,   71, 1502, 1622, 1621, 1503
  15, 1271,  406,  489,  454, 2703, 1838, 1921, 1886
  16,  282,  159,    8,    7, 1714, 1591, 1440, 1439
  17,  179,  258,   19,   18, 1611, 1690, 1451, 1450
  18,  333,  487,  432,  334, 1765, 1919, 1864, 1766
  19,  205,  142,  141,  204, 1637, 1574, 1573, 1636
  20,  179,   18,   17, 1242, 1611, 1450, 1449, 2674
** ... 2694 like lines cut
*Nset, nset=Batset, generate
    1,  4296,     1
*Elset, elset=Batset, generate
    1,  2714,     1
*Elset, elset=_BatTop_S2, internal, generate
 1358,  2714,     1
*Surface, type=ELEMENT, name=BatTop
_BatTop_S2, S2
*Elset, elset=_BatBot_S1, internal, generate
    1,  1357,     1
*Surface, type=ELEMENT, name=BatBot
_BatBot_S1, S1
*Elset, elset=_Battery-rivet-0_S3, internal
   11,   44,   85, 1368, 1401, 1442
*Elset, elset=_Battery-rivet-0_S4, internal
   46,  145, 1403, 1502
*Elset, elset=_Battery-rivet-0_S5, internal
   88, 1445
*Elset, elset=_Battery-rivet-0_S6, internal
   89,   91, 1446, 1448
*Surface, type=ELEMENT, name=Battery-rivet-0
_Battery-rivet-0_S3, S3
_Battery-rivet-0_S4, S4
_Battery-rivet-0_S6, S6
_Battery-rivet-0_S5, S5
*Elset, elset=_Battery-rivet-1_S4, internal
   30,  102,  160, 1387, 1459, 1517
*Elset, elset=_Battery-rivet-1_S3, internal
   45,   97,  360, 1402, 1454, 1717
*Elset, elset=_Battery-rivet-1_S6, internal
  104, 1461
*Elset, elset=_Battery-rivet-1_S5, internal
  141, 1498
*Surface, type=ELEMENT, name=Battery-rivet-1
_Battery-rivet-1_S4, S4
_Battery-rivet-1_S3, S3
_Battery-rivet-1_S6, S6
_Battery-rivet-1_S5, S5
*Elset, elset=_Battery-rivet-2_S5, internal
   17,  122,  169,  175, 1374, 1479, 1526, 1532
*Elset, elset=_Battery-rivet-2_S4, internal
   20,  121,  170,  174,  180, 1377, 1478, 1527, 1531, 1537
*Elset, elset=_Battery-rivet-2_S3, internal
   33, 1390
*Elset, elset=_Battery-rivet-2_S6, internal
  113,  178, 1470, 1535
*Surface, type=ELEMENT, name=Battery-rivet-2
_Battery-rivet-2_S5, S5
_Battery-rivet-2_S4, S4
_Battery-rivet-2_S6, S6
_Battery-rivet-2_S3, S3
*Elset, elset=_Battery-rivet-3_S3, internal
    6, 1363
*Elset, elset=_Battery-rivet-3_S5, internal
   12,   16,   66,  143, 1369, 1373, 1423, 1500
*Elset, elset=_Battery-rivet-3_S4, internal
   48,  149,  151, 1405, 1506, 1508
*Surface, type=ELEMENT, name=Battery-rivet-3
_Battery-rivet-3_S3, S3
_Battery-rivet-3_S5, S5
_Battery-rivet-3_S4, S4
*Orientation, name=Ori-1
1., 0., 0., 0., 1., 0.
3, 0.
** Section: BatOrtho
*Solid Section, elset=Batset, orientation=Ori-1, material=BatOrtho
,
*End Part
**  
*Part, name=CF
*Node
      1,         52.5,           0.,           0.
      2,         52.5,         110.,           0.
      3,           0.,         110.,           0.
      4,           0.,           0.,           0.
      5,         57.5,           0.,           0.
      6,         57.5,         110.,           0.
      7,         110.,           0.,           0.
      8,         110.,         110.,           0.
      9,         52.5,   2.97297287,           0.
     10,         52.5,   5.94594574,           0.
     11,         52.5,   8.91891861,           0.
     12,         52.5,   11.8918915,           0.
     13,         52.5,   14.8648653,           0.
     14,         52.5,   17.8378372,           0.
     15,         52.5,   20.8108101,           0.
     16,         52.5,    23.783783,           0.
     17,         52.5,   26.7567558,           0.
     18,         52.5,   29.7297306,           0.
     19,         52.5,   32.7027016,           0.
     20,         52.5,   35.6756744,           0.
** ... 1462 like lines cut
*Element, type=S4R
  1,   1,   9, 223, 114
  2,   9,  10, 224, 223
  3,  10,  11, 225, 224
  4,  11,  12, 226, 225
  5,  12,  13, 227, 226
  6,  13,  14, 228, 227
  7,  14,  15, 229, 228
  8,  15,  16, 230, 229
  9,  16,  17, 231, 230
 10,  17,  18, 232, 231
 11,  18,  19, 233, 232
 12,  19,  20, 234, 233
 13,  20,  21, 235, 234
 14,  21,  22, 236, 235
 15,  22,  23, 237, 236
 16,  23,  24, 238, 237
 17,  24,  25, 239, 238
 18,  25,  26, 240, 239
 19,  26,  27, 241, 240
 20,  27,  28, 242, 241
** ... 1386 like lines cut
*Nset, nset=CF_set, generate
    1,  1482,     1
*Elset, elset=CF_set, generate
    1,  1406,     1
*Elset, elset=_CFtop_SPOS, internal, generate
    1,  1406,     1
*Surface, type=ELEMENT, name=CFtop
_CFtop_SPOS, SPOS
*Elset, elset=_CFbot_SNEG, internal, generate
    1,  1406,     1
*Surface, type=ELEMENT, name=CFbot
_CFbot_SNEG, SNEG
** Section: CF_sec
*Shell Section, elset=CF_set, composite
0.2, 3, CF_material, 0.
0.2, 3, CF_material, 90.
0.2, 3, CF_material, 90.
0.2, 3, CF_material, 0.
*End Part
**  
*Part, name=Polymer
*Node
      1,          97.,   74.3346786,           0.
      2,          97.,   74.3346786,           5.
      3,          19.,   81.5741196,           0.
      4,          19.,   81.5741196,           5.
      5,          10.,         100.,           0.
      6,          10.,          10.,           0.
      7,         100.,          10.,           0.
      8,         100.,         100.,           0.
      9,         110.,           0.,           0.
     10,           0.,           0.,           0.
     11,           0.,         110.,           0.
     12,         110.,         110.,           0.
     13,          10.,          10.,           5.
     14,          10.,         100.,           5.
     15,         100.,         100.,           5.
     16,         100.,          10.,           5.
     17,           0.,         110.,           5.
     18,           0.,           0.,           5.
     19,         110.,           0.,           5.
     20,         110.,         110.,           5.
** ... 2170 like lines cut
*Element, type=C3D8R
 1,  668, 1780, 1781,  669,   33,  632,  633,   34
 2,  668,  667, 1779, 1780,   33,   32,  631,  632
 3, 1782, 1781, 1783, 1766,  634,  633,  635,  618
 4,  669, 1781, 1782,  670,   34,  633,  634,   35
 5, 1782, 1768,  659,  670,  634,  620,    1,   35
 6, 1766, 1785, 1771, 1765,  618,  637,  623,  617
 7, 1771, 1770, 1773, 1772,  623,  622,  625,  624
 8, 1778, 1769, 1784, 1779,  630,  621,  636,  631
 9, 1765, 1768, 1782, 1766,  617,  620,  634,  618
10,  666, 1778, 1779,  667,   31,  630,  631,   32
11, 1780, 1767, 1783, 1781,  632,  619,  635,  633
12,  666,  665, 1777, 1778,   31,   30,  629,  630
13, 1771, 1772, 1768, 1765,  623,  624,  620,  617
14,  660,  659, 1768, 1772,   25,    1,  620,  624
15,  663, 1775, 1776,  664,   28,  627,  628,   29
16, 1774, 1775,  663,  662,  626,  627,   28,   27
17, 1774, 1773, 1770, 1775,  626,  625,  622,  627
18, 1771, 1785, 1769, 1770,  623,  637,  621,  622
19,  661,  660, 1772, 1773,   26,   25,  624,  625
20,  662,  661, 1773, 1774,   27,   26,  625,  626
** ... 1128 like lines cut
*Nset, nset=PolySet
    5,    6,    7,    8,    9,   10,   11,   12,   13,   14,   15,   16,   17,   18,   19,   20
   61,   62,   63,   64,   65,   66,   67,   68,   69,   70,   71,   72,   73,   74,   75,   76
   77,   78,   79,   80,   81,   82,   83,   84,   85,   86,   87,   88,   89,   90,   91,   92
   93,   94,   95,   96,   97,   98,   99,  100,  101,  102,  103,  104,  105,  106,  107,  108
  109,  110,  111,  112,  113,  114,  115,  116,  117,  118,  119,  120,  121,  122,  123,  124
  125,  126,  127,  128,  129,  130,  131,  132,  133,  134,  135,  136,  137,  138,  139,  140
  141,  142,  143,  144,  145,  146,  147,  148,  149,  150,  151,  152,  153,  154,  155,  156
  157,  158,  159,  160,  161,  162,  163,  164,  165,  166,  167,  168,  169,  170,  171,  172
  173,  174,  175,  176,  177,  178,  179,  180,  181,  182,  183,  184,  185,  186,  187,  188
  189,  190,  191,  192,  193,  194,  195,  196,  197,  198,  199,  200,  201,  202,  203,  204
  205,  206,  207,  208,  209,  210,  211,  212,  213,  214,  215,  216,  217,  218,  219,  220
  221,  222,  223,  224,  225,  226,  227,  228,  229,  230,  231,  232,  233,  234,  235,  236
  237,  238,  239,  240,  241,  242,  243,  244,  245,  246,  247,  248,  249,  250,  251,  252
  253,  254,  255,  256,  257,  258,  259,  260,  261,  262,  263,  264,  265,  266,  267,  268
  269,  270,  271,  272,  273,  274,  275,  276,  277,  278,  279,  280,  281,  282,  283,  284
  285,  286,  287,  288,  289,  290,  291,  292,  293,  294,  295,  296,  297,  298,  299,  300
  301,  302,  303,  304,  305,  306,  307,  308,  309,  310,  311,  312,  313,  314,  315,  316
  317,  318,  319,  320,  321,  322,  323,  324,  325,  326,  327,  328,  329,  330,  331,  332
  333,  334,  335,  336,  337,  338,  339,  340,  341,  342,  343,  344,  345,  346,  347,  348
  349,  350,  351,  352,  353,  354,  355,  356,  357,  358,  359,  360,  361,  362,  363,  364
** ... 106 like lines cut
*Elset, elset=PolySet, generate
   61,  1132,     1
*Nset, nset=_PickedSet12, internal
    3,    4,   47,   48,   49,   50,   51,   52,   53,   54,   55,   56,   57,   58,   59,   60
  671,  672,  673,  674,  675,  676,  677,  678,  679,  680, 1786
*Elset, elset=_PickedSet12, internal, generate
 53,  60,   1
*Nset, nset=_PickedSet17, internal
   21,   22,  589,  590,  591,  592,  593,  594,  595,  596,  597,  598,  599,  600,  601,  602
 1745, 1746, 1747, 1748, 1749, 1750, 1751, 1752, 1753, 1754, 2189
*Elset, elset=_PickedSet17, internal, generate
 1133,  1140,     1
*Nset, nset=_PickedSet22, internal
    1,    2,   25,   26,   27,   28,   29,   30,   31,   32,   33,   34,   35,   36,   37,   38
   39,   40,   41,   42,   43,   44,   45,   46,  617,  618,  619,  620,  621,  622,  623,  624
  625,  626,  627,  628,  629,  630,  631,  632,  633,  634,  635,  636,  637,  638,  639,  640
  641,  642,  643,  644,  645,  646,  647,  648,  649,  650,  651,  652,  653,  654,  655,  656
  657,  658,  659,  660,  661,  662,  663,  664,  665,  666,  667,  668,  669,  670, 1765, 1766
 1767, 1768, 1769, 1770, 1771, 1772, 1773, 1774, 1775, 1776, 1777, 1778, 1779, 1780, 1781, 1782
 1783, 1784, 1785
*Elset, elset=_PickedSet22, internal, generate
  1,  52,   1
*Nset, nset=_PickedSet27, internal
   23,   24,  603,  604,  605,  606,  607,  608,  609,  610,  611,  612,  613,  614,  615,  616
 1755, 1756, 1757, 1758, 1759, 1760, 1761, 1762, 1763, 1764, 2190
*Elset, elset=_PickedSet27, internal, generate
 1141,  1148,     1
*Elset, elset=_PolyTop_S2, internal, generate
  597,  1132,     1
*Surface, type=ELEMENT, name=PolyTop
_PolyTop_S2, S2
*Elset, elset=_PolyBot_S1, internal, generate
  61,  596,    1
*Surface, type=ELEMENT, name=PolyBot
_PolyBot_S1, S1
*Elset, elset=_Polymer-rivet-0_S4, internal
 53, 55, 56, 57, 59, 60
*Elset, elset=_Polymer-rivet-0_S5, internal
 53, 55, 56, 57, 59, 60
*Elset, elset=_Polymer-rivet-0_S3, internal
 54, 58
*Elset, elset=_Polymer-rivet-0_S6, internal
 54, 58
*Surface, type=ELEMENT, name=Polymer-rivet-0
_Polymer-rivet-0_S4, S4
_Polymer-rivet-0_S5, S5
_Polymer-rivet-0_S6, S6
_Polymer-rivet-0_S3, S3
*Elset, elset=_Polymer-rivet-top-0_S1, internal, generate
 57,  60,   1
*Surface, type=ELEMENT, name=Polymer-rivet-top-0
_Polymer-rivet-top-0_S1, S1
*Elset, elset=_Polymer-rivet-bot-0_S2, internal, generate
 53,  56,   1
*Surface, type=ELEMENT, name=Polymer-rivet-bot-0
_Polymer-rivet-bot-0_S2, S2
*Elset, elset=_Polymer-rivet-1_S4, internal
 1133, 1135, 1136, 1137, 1139, 1140
*Elset, elset=_Polymer-rivet-1_S5, internal
 1133, 1135, 1136, 1137, 1139, 1140
*Elset, elset=_Polymer-rivet-1_S3, internal
 1134, 1138
*Elset, elset=_Polymer-rivet-1_S6, internal
 1134, 1138
*Surface, type=ELEMENT, name=Polymer-rivet-1
_Polymer-rivet-1_S4, S4
_Polymer-rivet-1_S5, S5
_Polymer-rivet-1_S6, S6
_Polymer-rivet-1_S3, S3
*Elset, elset=_Polymer-rivet-top-1_S1, internal, generate
 1137,  1140,     1
*Surface, type=ELEMENT, name=Polymer-rivet-top-1
_Polymer-rivet-top-1_S1, S1
*Elset, elset=_Polymer-rivet-bot-1_S2, internal, generate
 1133,  1136,     1
*Surface, type=ELEMENT, name=Polymer-rivet-bot-1
_Polymer-rivet-bot-1_S2, S2
*Elset, elset=_Polymer-rivet-2_S6, internal
  1,  4, 10, 15, 21, 27, 30, 36, 41, 47
*Elset, elset=_Polymer-rivet-2_S3, internal
  2, 12, 14, 19, 20, 28, 38, 40, 45, 46
*Elset, elset=_Polymer-rivet-2_S5, internal
  5, 16, 31, 42
*Surface, type=ELEMENT, name=Polymer-rivet-2
_Polymer-rivet-2_S6, S6
_Polymer-rivet-2_S3, S3
_Polymer-rivet-2_S5, S5
*Elset, elset=_Polymer-rivet-top-2_S1, internal, generate
 27,  52,   1
*Surface, type=ELEMENT, name=Polymer-rivet-top-2
_Polymer-rivet-top-2_S1, S1
*Elset, elset=_Polymer-rivet-bot-2_S2, internal, generate
  1,  26,   1
*Surface, type=ELEMENT, name=Polymer-rivet-bot-2
_Polymer-rivet-bot-2_S2, S2
*Elset, elset=_Polymer-rivet-3_S3, internal
 1141, 1142, 1143, 1145, 1146, 1147
*Elset, elset=_Polymer-rivet-3_S6, internal
 1141, 1142, 1143, 1145, 1146, 1147
*Elset, elset=_Polymer-rivet-3_S4, internal
 1144, 1148
*Elset, elset=_Polymer-rivet-3_S5, internal
 1144, 1148
*Surface, type=ELEMENT, name=Polymer-rivet-3
_Polymer-rivet-3_S3, S3
_Polymer-rivet-3_S6, S6
_Polymer-rivet-3_S4, S4
_Polymer-rivet-3_S5, S5
*Elset, elset=_Polymer-rivet-top-3_S1, internal, generate
 1145,  1148,     1
*Surface, type=ELEMENT, name=Polymer-rivet-top-3
_Polymer-rivet-top-3_S1, S1
*Elset, elset=_Polymer-rivet-bot-3_S2, internal, generate
 1141,  1144,     1
*Surface, type=ELEMENT, name=Polymer-rivet-bot-3
_Polymer-rivet-bot-3_S2, S2
** Section: PolySec
*Solid Section, elset=_PickedSet22, material=Polymer
,
** Section: PolySec
*Solid Section, elset=_PickedSet12, material=Polymer
,
** Section: PolySec
*Solid Section, elset=PolySet, material=Polymer
,
** Section: PolySec
*Solid Section, elset=_PickedSet17, material=Polymer
,
** Section: PolySec
*Solid Section, elset=_PickedSet27, material=Polymer
,
*End Part
**  
**
** ASSEMBLY
**
*Assembly, name=Assembly
**  
*Instance, name=Polymer-1, part=Polymer
*End Instance
**  
*Instance, name=Battery-1, part=Battery
         10.,          10.,           0.
*End Instance
**  
*Instance, name=CF-1, part=CF
          0.,           0.,         -0.4
*End Instance
**  
*Instance, name=CF-2, part=CF
          0.,           0.,          5.4
*End Instance
**  
*Node
      1,          55.,          55.,    5.4000001
*Nset, nset=VerticalSupport, instance=CF-1
   3,   4,   7,   8,  62,  63,  64,  65,  66,  67,  68,  69,  70,  71,  72,  73
  74,  75,  76,  77,  78,  79,  80,  81,  82,  83,  84,  85,  86,  87,  88,  89
  90,  91,  92,  93,  94,  95,  96,  97, 170, 171, 172, 173, 174, 175, 176, 177
 178, 179, 180, 181, 182, 183, 184, 185, 186, 187, 188, 189, 190, 191, 192, 193
 194, 195, 196, 197, 198, 199, 200, 201, 202, 203, 204, 205
*Elset, elset=VerticalSupport, instance=CF-1
  630,  631,  632,  633,  634,  635,  636,  637,  638,  639,  640,  641,  642,  643,  644,  645
  646,  647,  648,  649,  650,  651,  652,  653,  654,  655,  656,  657,  658,  659,  660,  661
  662,  663,  664,  665,  666, 1370, 1371, 1372, 1373, 1374, 1375, 1376, 1377, 1378, 1379, 1380
 1381, 1382, 1383, 1384, 1385, 1386, 1387, 1388, 1389, 1390, 1391, 1392, 1393, 1394, 1395, 1396
 1397, 1398, 1399, 1400, 1401, 1402, 1403, 1404, 1405, 1406
*Nset, nset=XDirSupport, instance=CF-1
 3,
*Nset, nset=YDirSupport, instance=CF-1
 7,
*Nset, nset=rigid_loading_set, instance=CF-2
   1,   2,   5,   6,   9,  10,  11,  12,  13,  14,  15,  16,  17,  18,  19,  20
  21,  22,  23,  24,  25,  26,  27,  28,  29,  30,  31,  32,  33,  34,  35,  36
  37,  38,  39,  40,  41,  42,  43,  44, 115, 116, 117, 118, 119, 120, 121, 122
 123, 124, 125, 126, 127, 128, 129, 130, 131, 132, 133, 134, 135, 136, 137, 138
 139, 140, 141, 142, 143, 144, 145, 146, 147, 148, 149, 150, 151, 152, 835, 836
 837, 838, 839, 840, 841, 842, 843, 844, 845, 846, 847, 848, 849, 850, 851, 852
 853, 854, 855, 856, 857, 858, 859, 860, 861, 862, 863, 864, 865, 866, 867, 868
 869, 870
*Elset, elset=rigid_loading_set, instance=CF-2, generate
 667,  740,    1
*Nset, nset=_PickedSet14, internal
 1,
*Elset, elset=__PickedSurf15_SPOS, internal, instance=CF-2, generate
 667,  740,    1
*Surface, type=ELEMENT, name=_PickedSurf15, internal
__PickedSurf15_SPOS, SPOS
** Constraint: BatPoly-0
*Tie, name=BatPoly-0, adjust=no, position tolerance=1.
Battery-1.Battery-rivet-0, Polymer-1.Polymer-rivet-0
** Constraint: BatPoly-1
*Tie, name=BatPoly-1, adjust=no, position tolerance=1.
Battery-1.Battery-rivet-1, Polymer-1.Polymer-rivet-1
** Constraint: BatPoly-2
*Tie, name=BatPoly-2, adjust=no, position tolerance=1.
Battery-1.Battery-rivet-2, Polymer-1.Polymer-rivet-2
** Constraint: BatPoly-3
*Tie, name=BatPoly-3, adjust=no, position tolerance=1.
Battery-1.Battery-rivet-3, Polymer-1.Polymer-rivet-3
** Constraint: CF1Poly
*Tie, name=CF1Poly, adjust=no, position tolerance=1.
Polymer-1.PolyBot, CF-1.CFtop
** Constraint: CF1Poly-Rivet-0
*Tie, name=CF1Poly-Rivet-0, adjust=no, position tolerance=1.
Polymer-1.Polymer-rivet-bot-0, CF-1.CFtop
** Constraint: CF1Poly-Rivet-1
*Tie, name=CF1Poly-Rivet-1, adjust=no, position tolerance=1.
Polymer-1.Polymer-rivet-bot-1, CF-1.CFtop
** Constraint: CF1Poly-Rivet-2
*Tie, name=CF1Poly-Rivet-2, adjust=no, position tolerance=1.
Polymer-1.Polymer-rivet-bot-2, CF-1.CFtop
** Constraint: CF1Poly-Rivet-3
*Tie, name=CF1Poly-Rivet-3, adjust=no, position tolerance=1.
Polymer-1.Polymer-rivet-bot-3, CF-1.CFtop
** Constraint: CF2Poly
*Tie, name=CF2Poly, adjust=no, position tolerance=1.
Polymer-1.PolyTop, CF-2.CFbot
** Constraint: CF2Poly-Rivet-0
*Tie, name=CF2Poly-Rivet-0, adjust=no, position tolerance=1.
Polymer-1.Polymer-rivet-top-0, CF-2.CFbot
** Constraint: CF2Poly-Rivet-1
*Tie, name=CF2Poly-Rivet-1, adjust=no, position tolerance=1.
Polymer-1.Polymer-rivet-top-1, CF-2.CFbot
** Constraint: CF2Poly-Rivet-2
*Tie, name=CF2Poly-Rivet-2, adjust=no, position tolerance=1.
Polymer-1.Polymer-rivet-top-2, CF-2.CFbot
** Constraint: CF2Poly-Rivet-3
*Tie, name=CF2Poly-Rivet-3, adjust=no, position tolerance=1.
Polymer-1.Polymer-rivet-top-3, CF-2.CFbot
** Constraint: LoadingRigidBody
*Rigid Body, ref node=_PickedSet14, tie nset=rigid_loading_set
*End Assembly
** 
** MATERIALS
** 
*Material, name=BatOrtho
*Elastic, type=ENGINEERING CONSTANTS
1090., 109., 500., 0.15, 0.15, 0.15, 474., 474.
 474.,
*Material, name=CF_material
*Elastic, type=ENGINEERING CONSTANTS
30420.,  4023.,  4023.,   0.29,   0.29, 0.3928,  2081.,  2081.
  1440.,
*Material, name=Polymer
*Elastic
500., 0.3
** 
** INTERACTION PROPERTIES
** 
*Surface Interaction, name=NormCont
1.,
*Friction, slip tolerance=0.005
 0.3,
*Surface Behavior, pressure-overclosure=HARD
** 
** INTERACTIONS
** 
** Interaction: CF1Bat
*Contact Pair, interaction=NormCont, type=SURFACE TO SURFACE
Battery-1.BatBot, CF-1.CFtop
** Interaction: CF2Bat
*Contact Pair, interaction=NormCont, type=SURFACE TO SURFACE
Battery-1.BatTop, CF-2.CFbot
** ----------------------------------------------------------------
** 
** STEP: Loading
** 
*Step, name=Loading, nlgeom=NO
*Static
1., 1., 1e-05, 1.
** 
** BOUNDARY CONDITIONS
** 
** Name: VerticalSupport Type: Displacement/Rotation
*Boundary
VerticalSupport, 3, 3
** Name: XDirSupport Type: Displacement/Rotation
*Boundary
XDirSupport, 1, 1
** Name: YDirSupport Type: Displacement/Rotation
*Boundary
YDirSupport, 2, 2
** 
** LOADS
** 
** Name: Load-1   Type: Pressure
*Dsload
_PickedSurf15, P, 0.181818
** 
** OUTPUT REQUESTS
** 
*Restart, write, frequency=0
** 
** FIELD OUTPUT: F-Output-1
** 
*Output, field
*Node Output
U, UR, UT
*Element Output, directions=YES
EVOL, 
** 
** HISTORY OUTPUT: H-Output-1
** 
*Output, history, variable=PRESELECT
*End Step
