*Heading
** Job name: Job-8 Model name: Model-1
** Generated by: Abaqus/CAE 2019
*Preprint, echo=NO, model=NO, history=NO, contact=NO
**
** PARTS
**
*Part, name=Battery
*Node
      1,   13.1420231,   84.2824554,           0.
      2,   11.1526403,   86.2718353,           0.
      3,   8.43509388,          87.,           0.
      4,   5.71754694,   86.2718353,           0.
      5,   3.72816443,   84.2824554,           0.
      6,           3.,   81.5649033,           0.
      7,   3.72816443,   78.8473587,           0.
      8,   5.71754694,   76.8579788,           0.
      9,   8.43509388,   76.1298141,           0.
     10,   11.1526403,   76.8579788,           0.
     11,   13.1420231,   78.8473587,           0.
     12,   13.8701878,   81.5649033,           0.
     13,   86.1213226,   45.2279816,           0.
     14,          84.,   46.1066589,           0.
     15,   81.8786774,   45.2279816,           0.
     16,          81.,   43.1066589,           0.
     17,   81.8786774,   40.9853401,           0.
     18,          84.,   40.1066589,           0.
     19,   86.1213226,   40.9853401,           0.
     20,          87.,   43.1066589,           0.
** ... 3721 like lines cut
*Element, type=C3D8R
   1, 1132,  178,  182, 1129, 2379, 1425, 1429, 2376
   2, 1123,    4,    3,  108, 2370, 1251, 1250, 1355
   3,    5,    4, 1123,  179, 1252, 1251, 2370, 1426
   4,  108,  107,  179, 1123, 1355, 1354, 1426, 2370
   5,  179,  106,  105,    5, 1426, 1353, 1352, 1252
   6,    5,  105,  104,    6, 1252, 1352, 1351, 1253
   7,  228,   96,   95,  227, 1475, 1343, 1342, 1474
   8,   79,  269,   37,   80, 1326, 1516, 1284, 1327
   9, 1121, 1116,   36,   35, 2368, 2363, 1283, 1282
  10, 1133,  311, 1116, 1121, 2380, 1558, 2363, 2368
  11,  644,  191,   24,  185, 1891, 1438, 1271, 1432
  12,  368,  314,  196,  219, 1615, 1561, 1443, 1466
  13,   84,  282,  219,   85, 1331, 1529, 1466, 1332
  14,   35,   34,  442, 1121, 1282, 1281, 1689, 2368
  15,   34,   33,  436,  166, 1281, 1280, 1683, 1413
  16,   26,  187,  358,  188, 1273, 1434, 1605, 1435
  17,   71,  195,  201,   72, 1318, 1442, 1448, 1319
  18,   75,  218,  292,   76, 1322, 1465, 1539, 1323
  19,  222,   89,   88,  221, 1469, 1336, 1335, 1468
  20,  226,   94,   93,  197, 1473, 1341, 1340, 1444
** ... 2316 like lines cut
*Nset, nset=Batset, generate
    1,  3741,     1
*Elset, elset=Batset, generate
    1,  2336,     1
*Elset, elset=_BatTop_S2, internal, generate
 1169,  2336,     1
*Surface, type=ELEMENT, name=BatTop
_BatTop_S2, S2
*Elset, elset=_BatBot_S1, internal, generate
    1,  1168,     1
*Surface, type=ELEMENT, name=BatBot
_BatBot_S1, S1
*Elset, elset=_Battery-rivet-0_S5, internal
    9,   49, 1177, 1217
*Elset, elset=_Battery-rivet-0_S3, internal
   14,   15,   46, 1182, 1183, 1214
*Elset, elset=_Battery-rivet-0_S4, internal
   74,  162, 1242, 1330
*Elset, elset=_Battery-rivet-0_S6, internal
  148, 1316
*Surface, type=ELEMENT, name=Battery-rivet-0
_Battery-rivet-0_S5, S5
_Battery-rivet-0_S3, S3
_Battery-rivet-0_S4, S4
_Battery-rivet-0_S6, S6
*Elset, elset=_Battery-rivet-1_S6, internal
   43,   57,   67,   71,  146,  161, 1211, 1225, 1235, 1239, 1314, 1329
*Elset, elset=_Battery-rivet-1_S4, internal
   65,   70,  173,  176,  180, 1233, 1238, 1341, 1344, 1348
*Elset, elset=_Battery-rivet-1_S3, internal
  147,  177, 1315, 1345
*Elset, elset=_Battery-rivet-1_S5, internal
  171,  174,  179, 1339, 1342, 1347
*Surface, type=ELEMENT, name=Battery-rivet-1
_Battery-rivet-1_S6, S6
_Battery-rivet-1_S4, S4
_Battery-rivet-1_S3, S3
_Battery-rivet-1_S5, S5
*Elset, elset=_Battery-rivet-2_S5, internal
   25,  154,  251, 1193, 1322, 1419
*Elset, elset=_Battery-rivet-2_S4, internal
   39,  153,  158, 1207, 1321, 1326
*Elset, elset=_Battery-rivet-2_S3, internal
  126, 1294
*Elset, elset=_Battery-rivet-2_S6, internal
  131, 1299
*Surface, type=ELEMENT, name=Battery-rivet-2
_Battery-rivet-2_S5, S5
_Battery-rivet-2_S4, S4
_Battery-rivet-2_S6, S6
_Battery-rivet-2_S3, S3
*Elset, elset=_Battery-rivet-3_S4, internal
    2,  164,  165,  167, 1170, 1332, 1333, 1335
*Elset, elset=_Battery-rivet-3_S3, internal
    3,   95,  103,  104, 1171, 1263, 1271, 1272
*Elset, elset=_Battery-rivet-3_S6, internal
    6,   22,   98, 1174, 1190, 1266
*Elset, elset=_Battery-rivet-3_S5, internal
  169, 1337
*Surface, type=ELEMENT, name=Battery-rivet-3
_Battery-rivet-3_S4, S4
_Battery-rivet-3_S3, S3
_Battery-rivet-3_S6, S6
_Battery-rivet-3_S5, S5
*Orientation, name=Ori-1
1., 0., 0., 0., 1., 0.
3, 0.
** Section: BatOrtho
*Solid Section, elset=Batset, orientation=Ori-1, material=BatOrtho
,
*End Part
**  
*Part, name=CF
*Node
      1,         52.5,           0.,           0.
      2,         52.5,         110.,           0.
      3,           0.,         110.,           0.
      4,           0.,           0.,           0.
      5,         57.5,           0.,           0.
      6,         57.5,         110.,           0.
      7,         110.,           0.,           0.
      8,         110.,         110.,           0.
      9,         52.5,   2.97297287,           0.
     10,         52.5,   5.94594574,           0.
     11,         52.5,   8.91891861,           0.
     12,         52.5,   11.8918915,           0.
     13,         52.5,   14.8648653,           0.
     14,         52.5,   17.8378372,           0.
     15,         52.5,   20.8108101,           0.
     16,         52.5,    23.783783,           0.
     17,         52.5,   26.7567558,           0.
     18,         52.5,   29.7297306,           0.
     19,         52.5,   32.7027016,           0.
     20,         52.5,   35.6756744,           0.
** ... 1462 like lines cut
*Element, type=S4R
  1,   1,   9, 223, 114
  2,   9,  10, 224, 223
  3,  10,  11, 225, 224
  4,  11,  12, 226, 225
  5,  12,  13, 227, 226
  6,  13,  14, 228, 227
  7,  14,  15, 229, 228
  8,  15,  16, 230, 229
  9,  16,  17, 231, 230
 10,  17,  18, 232, 231
 11,  18,  19, 233, 232
 12,  19,  20, 234, 233
 13,  20,  21, 235, 234
 14,  21,  22, 236, 235
 15,  22,  23, 237, 236
 16,  23,  24, 238, 237
 17,  24,  25, 239, 238
 18,  25,  26, 240, 239
 19,  26,  27, 241, 240
 20,  27,  28, 242, 241
** ... 1386 like lines cut
*Nset, nset=CF_set, generate
    1,  1482,     1
*Elset, elset=CF_set, generate
    1,  1406,     1
*Elset, elset=_CFtop_SPOS, internal, generate
    1,  1406,     1
*Surface, type=ELEMENT, name=CFtop
_CFtop_SPOS, SPOS
*Elset, elset=_CFbot_SNEG, internal, generate
    1,  1406,     1
*Surface, type=ELEMENT, name=CFbot
_CFbot_SNEG, SNEG
** Section: CF_sec
*Shell Section, elset=CF_set, composite
0.2, 3, CF_material, 0.
0.2, 3, CF_material, 90.
0.2, 3, CF_material, 90.
0.2, 3, CF_material, 0.
*End Part
**  
*Part, name=Polymer
*Node
      1,          97.,   53.1066589,           0.
      2,          97.,   53.1066589,           5.
      3,          19.,   21.8446388,           0.
      4,          19.,   21.8446388,           5.
      5,          10.,         100.,           0.
      6,          10.,          10.,           0.
      7,         100.,          10.,           0.
      8,         100.,         100.,           0.
      9,         110.,           0.,           0.
     10,           0.,           0.,           0.
     11,           0.,         110.,           0.
     12,         110.,         110.,           0.
     13,          10.,          10.,           5.
     14,          10.,         100.,           5.
     15,         100.,         100.,           5.
     16,         100.,          10.,           5.
     17,           0.,         110.,           5.
     18,           0.,           0.,           5.
     19,         110.,           0.,           5.
     20,         110.,         110.,           5.
** ... 2233 like lines cut
*Element, type=C3D8R
1, 1815,  641,  640,  639,  633,   30,   29,   28
2,  642,  641, 1815,  635,   31,   30,  633,    1
3, 1815,  637,  636,  635,  633,   26,   25,    1
4, 1815,  639,  638,  637,  633,   28,   27,   26
5,  634,   33,   34,   35, 1815,  641,  640,  639
6,   32,   33,  634,    2,  642,  641, 1815,  635
7,  634,   37,   38,    2, 1815,  637,  636,  635
8,  634,   35,   36,   37, 1815,  639,  638,  637
 9, 1816,  651,  650,  649,  643,   44,   43,   42
10,  652,  651, 1816,  645,   45,   44,  643,    3
11,  648,  647, 1816,  649,   41,   40,  643,   42
12, 1816,  647,  646,  645,  643,   40,   39,    3
13,  644,   47,   48,   49, 1816,  651,  650,  649
14,   46,   47,  644,    4,  652,  651, 1816,  645
15,   50,   51,  644,   49,  648,  647, 1816,  649
16,  644,   51,   52,    4, 1816,  647,  646,  645
  17,  987,  988,   67,   66, 2151, 2152, 1594, 1595
  18,   68,  989,  677,   69, 1593, 2153, 1841, 1592
  19,  808,  833,  222,  221, 1972, 1997, 1475, 1476
  20,  809,  810,  224,  223, 1973, 1974, 1473, 1474
** ... 1162 like lines cut
*Nset, nset=PolySet
    5,    6,    7,    8,    9,   10,   11,   12,   13,   14,   15,   16,   17,   18,   19,   20
   53,   54,   55,   56,   57,   58,   59,   60,   61,   62,   63,   64,   65,   66,   67,   68
   69,   70,   71,   72,   73,   74,   75,   76,   77,   78,   79,   80,   81,   82,   83,   84
   85,   86,   87,   88,   89,   90,   91,   92,   93,   94,   95,   96,   97,   98,   99,  100
  101,  102,  103,  104,  105,  106,  107,  108,  109,  110,  111,  112,  113,  114,  115,  116
  117,  118,  119,  120,  121,  122,  123,  124,  125,  126,  127,  128,  129,  130,  131,  132
  133,  134,  135,  136,  137,  138,  139,  140,  141,  142,  143,  144,  145,  146,  147,  148
  149,  150,  151,  152,  153,  154,  155,  156,  157,  158,  159,  160,  161,  162,  163,  164
  165,  166,  167,  168,  169,  170,  171,  172,  173,  174,  175,  176,  177,  178,  179,  180
  181,  182,  183,  184,  185,  186,  187,  188,  189,  190,  191,  192,  193,  194,  195,  196
  197,  198,  199,  200,  201,  202,  203,  204,  205,  206,  207,  208,  209,  210,  211,  212
  213,  214,  215,  216,  217,  218,  219,  220,  221,  222,  223,  224,  225,  226,  227,  228
  229,  230,  231,  232,  233,  234,  235,  236,  237,  238,  239,  240,  241,  242,  243,  244
  245,  246,  247,  248,  249,  250,  251,  252,  253,  254,  255,  256,  257,  258,  259,  260
  261,  262,  263,  264,  265,  266,  267,  268,  269,  270,  271,  272,  273,  274,  275,  276
  277,  278,  279,  280,  281,  282,  283,  284,  285,  286,  287,  288,  289,  290,  291,  292
  293,  294,  295,  296,  297,  298,  299,  300,  301,  302,  303,  304,  305,  306,  307,  308
  309,  310,  311,  312,  313,  314,  315,  316,  317,  318,  319,  320,  321,  322,  323,  324
  325,  326,  327,  328,  329,  330,  331,  332,  333,  334,  335,  336,  337,  338,  339,  340
  341,  342,  343,  344,  345,  346,  347,  348,  349,  350,  351,  352,  353,  354,  355,  356
** ... 106 like lines cut
*Elset, elset=PolySet, generate
   17,  1088,     1
*Nset, nset=_PickedSet12, internal
    3,    4,   39,   40,   41,   42,   43,   44,   45,   46,   47,   48,   49,   50,   51,   52
  643,  644,  645,  646,  647,  648,  649,  650,  651,  652, 1816
*Elset, elset=_PickedSet12, internal, generate
  9,  16,   1
*Nset, nset=_PickedSet17, internal
   21,   22,  581,  582,  583,  584,  585,  586,  587,  588,  589,  590,  591,  592,  593,  594
  595,  596,  597,  598,  599,  600,  601,  602,  603,  604,  605,  606,  607,  608,  609,  610
 1717, 1718, 1719, 1720, 1721, 1722, 1723, 1724, 1725, 1726, 1727, 1728, 1729, 1730, 1731, 1732
 1733, 1734, 1735, 1736, 1737, 1738, 1739, 1740, 1741, 1742, 1743, 1744, 1745, 1746, 1747, 1748
 1749, 1750, 1751, 1752, 1753, 1754, 1755, 1756, 1757, 1758, 1759, 1760, 1761, 1762, 1763, 1764
 1765, 1766, 1767, 1768, 1769, 1770, 1771, 1772, 1773, 1774, 1775, 1776, 2219, 2220, 2221, 2222
 2223, 2224, 2225, 2226, 2227, 2228, 2229, 2230, 2231, 2232, 2233, 2234, 2235, 2236, 2237, 2238
 2239, 2240
*Elset, elset=_PickedSet17, internal, generate
 1089,  1146,     1
*Nset, nset=_PickedSet22, internal
    1,    2,   25,   26,   27,   28,   29,   30,   31,   32,   33,   34,   35,   36,   37,   38
  633,  634,  635,  636,  637,  638,  639,  640,  641,  642, 1815
*Elset, elset=_PickedSet22, internal, generate
 1,  8,  1
*Nset, nset=_PickedSet27, internal
   23,   24,  611,  612,  613,  614,  615,  616,  617,  618,  619,  620,  621,  622,  623,  624
  625,  626,  627,  628,  629,  630,  631,  632, 1777, 1778, 1779, 1780, 1781, 1782, 1783, 1784
 1785, 1786, 1787, 1788, 1789, 1790, 1791, 1792, 1793, 1794, 1795, 1796, 1797, 1798, 1799, 1800
 1801, 1802, 1803, 1804, 1805, 1806, 1807, 1808, 1809, 1810, 1811, 1812, 1813, 1814, 2241, 2242
 2243, 2244, 2245, 2246, 2247, 2248, 2249, 2250, 2251, 2252, 2253
*Elset, elset=_PickedSet27, internal, generate
 1147,  1182,     1
*Elset, elset=_PolyTop_S2, internal, generate
  553,  1088,     1
*Surface, type=ELEMENT, name=PolyTop
_PolyTop_S2, S2
*Elset, elset=_PolyBot_S1, internal, generate
  17,  552,    1
*Surface, type=ELEMENT, name=PolyBot
_PolyBot_S1, S1
*Elset, elset=_Polymer-rivet-0_S4, internal
  9, 12, 13, 16
*Elset, elset=_Polymer-rivet-0_S5, internal
  9, 12, 13, 16
*Elset, elset=_Polymer-rivet-0_S3, internal
 10, 11, 14, 15
*Elset, elset=_Polymer-rivet-0_S6, internal
 10, 11, 14, 15
*Surface, type=ELEMENT, name=Polymer-rivet-0
_Polymer-rivet-0_S4, S4
_Polymer-rivet-0_S5, S5
_Polymer-rivet-0_S6, S6
_Polymer-rivet-0_S3, S3
*Elset, elset=_Polymer-rivet-top-0_S1, internal, generate
 13,  16,   1
*Surface, type=ELEMENT, name=Polymer-rivet-top-0
_Polymer-rivet-top-0_S1, S1
*Elset, elset=_Polymer-rivet-bot-0_S2, internal, generate
  9,  12,   1
*Surface, type=ELEMENT, name=Polymer-rivet-bot-0
_Polymer-rivet-bot-0_S2, S2
*Elset, elset=_Polymer-rivet-1_S6, internal
 1089, 1103, 1104, 1118, 1132, 1133
*Elset, elset=_Polymer-rivet-1_S5, internal
 1090, 1098, 1107, 1119, 1127, 1136
*Elset, elset=_Polymer-rivet-1_S3, internal
 1092, 1095, 1105, 1114, 1121, 1124, 1134, 1143
*Elset, elset=_Polymer-rivet-1_S4, internal
 1096, 1099, 1100, 1102, 1111, 1116, 1125, 1128, 1129, 1131, 1140, 1145
*Surface, type=ELEMENT, name=Polymer-rivet-1
_Polymer-rivet-1_S6, S6
_Polymer-rivet-1_S5, S5
_Polymer-rivet-1_S4, S4
_Polymer-rivet-1_S3, S3
*Elset, elset=_Polymer-rivet-top-1_S1, internal, generate
 1118,  1146,     1
*Surface, type=ELEMENT, name=Polymer-rivet-top-1
_Polymer-rivet-top-1_S1, S1
*Elset, elset=_Polymer-rivet-bot-1_S2, internal, generate
 1089,  1117,     1
*Surface, type=ELEMENT, name=Polymer-rivet-bot-1
_Polymer-rivet-bot-1_S2, S2
*Elset, elset=_Polymer-rivet-2_S4, internal
 1, 3, 4, 5, 7, 8
*Elset, elset=_Polymer-rivet-2_S5, internal
 1, 3, 4, 5, 7, 8
*Elset, elset=_Polymer-rivet-2_S3, internal
 2, 6
*Elset, elset=_Polymer-rivet-2_S6, internal
 2, 6
*Surface, type=ELEMENT, name=Polymer-rivet-2
_Polymer-rivet-2_S4, S4
_Polymer-rivet-2_S5, S5
_Polymer-rivet-2_S6, S6
_Polymer-rivet-2_S3, S3
*Elset, elset=_Polymer-rivet-top-2_S1, internal, generate
 5,  8,  1
*Surface, type=ELEMENT, name=Polymer-rivet-top-2
_Polymer-rivet-top-2_S1, S1
*Elset, elset=_Polymer-rivet-bot-2_S2, internal, generate
 1,  4,  1
*Surface, type=ELEMENT, name=Polymer-rivet-bot-2
_Polymer-rivet-bot-2_S2, S2
*Elset, elset=_Polymer-rivet-3_S4, internal
 1147, 1154, 1156, 1158, 1160, 1163, 1165, 1172, 1174, 1176, 1178, 1181
*Elset, elset=_Polymer-rivet-3_S6, internal
 1148, 1166
*Elset, elset=_Polymer-rivet-3_S5, internal, generate
 1153,  1180,     9
*Elset, elset=_Polymer-rivet-3_S3, internal
 1155, 1157, 1159, 1173, 1175, 1177
*Surface, type=ELEMENT, name=Polymer-rivet-3
_Polymer-rivet-3_S4, S4
_Polymer-rivet-3_S6, S6
_Polymer-rivet-3_S5, S5
_Polymer-rivet-3_S3, S3
*Elset, elset=_Polymer-rivet-top-3_S1, internal, generate
 1165,  1182,     1
*Surface, type=ELEMENT, name=Polymer-rivet-top-3
_Polymer-rivet-top-3_S1, S1
*Elset, elset=_Polymer-rivet-bot-3_S2, internal, generate
 1147,  1164,     1
*Surface, type=ELEMENT, name=Polymer-rivet-bot-3
_Polymer-rivet-bot-3_S2, S2
** Section: PolySec
*Solid Section, elset=_PickedSet22, material=Polymer
,
** Section: PolySec
*Solid Section, elset=_PickedSet12, material=Polymer
,
** Section: PolySec
*Solid Section, elset=PolySet, material=Polymer
,
** Section: PolySec
*Solid Section, elset=_PickedSet17, material=Polymer
,
** Section: PolySec
*Solid Section, elset=_PickedSet27, material=Polymer
,
*End Part
**  
**
** ASSEMBLY
**
*Assembly, name=Assembly
**  
*Instance, name=Polymer-1, part=Polymer
*End Instance
**  
*Instance, name=Battery-1, part=Battery
         10.,          10.,           0.
*End Instance
**  
*Instance, name=CF-1, part=CF
          0.,           0.,         -0.4
*End Instance
**  
*Instance, name=CF-2, part=CF
          0.,           0.,          5.4
*End Instance
**  
*Node
      1,          55.,          55.,    5.4000001
*Nset, nset=VerticalSupport, instance=CF-1
   3,   4,   7,   8,  62,  63,  64,  65,  66,  67,  68,  69,  70,  71,  72,  73
  74,  75,  76,  77,  78,  79,  80,  81,  82,  83,  84,  85,  86,  87,  88,  89
  90,  91,  92,  93,  94,  95,  96,  97, 170, 171, 172, 173, 174, 175, 176, 177
 178, 179, 180, 181, 182, 183, 184, 185, 186, 187, 188, 189, 190, 191, 192, 193
 194, 195, 196, 197, 198, 199, 200, 201, 202, 203, 204, 205
*Elset, elset=VerticalSupport, instance=CF-1
  630,  631,  632,  633,  634,  635,  636,  637,  638,  639,  640,  641,  642,  643,  644,  645
  646,  647,  648,  649,  650,  651,  652,  653,  654,  655,  656,  657,  658,  659,  660,  661
  662,  663,  664,  665,  666, 1370, 1371, 1372, 1373, 1374, 1375, 1376, 1377, 1378, 1379, 1380
 1381, 1382, 1383, 1384, 1385, 1386, 1387, 1388, 1389, 1390, 1391, 1392, 1393, 1394, 1395, 1396
 1397, 1398, 1399, 1400, 1401, 1402, 1403, 1404, 1405, 1406
*Nset, nset=XDirSupport, instance=CF-1
 3,
*Nset, nset=YDirSupport, instance=CF-1
 7,
*Nset, nset=rigid_loading_set, instance=CF-2
   1,   2,   5,   6,   9,  10,  11,  12,  13,  14,  15,  16,  17,  18,  19,  20
  21,  22,  23,  24,  25,  26,  27,  28,  29,  30,  31,  32,  33,  34,  35,  36
  37,  38,  39,  40,  41,  42,  43,  44, 115, 116, 117, 118, 119, 120, 121, 122
 123, 124, 125, 126, 127, 128, 129, 130, 131, 132, 133, 134, 135, 136, 137, 138
 139, 140, 141, 142, 143, 144, 145, 146, 147, 148, 149, 150, 151, 152, 835, 836
 837, 838, 839, 840, 841, 842, 843, 844, 845, 846, 847, 848, 849, 850, 851, 852
 853, 854, 855, 856, 857, 858, 859, 860, 861, 862, 863, 864, 865, 866, 867, 868
 869, 870
*Elset, elset=rigid_loading_set, instance=CF-2, generate
 667,  740,    1
*Nset, nset=_PickedSet14, internal
 1,
*Elset, elset=__PickedSurf15_SPOS, internal, instance=CF-2, generate
 667,  740,    1
*Surface, type=ELEMENT, name=_PickedSurf15, internal
__PickedSurf15_SPOS, SPOS
** Constraint: BatPoly-0
*Tie, name=BatPoly-0, adjust=no, position tolerance=1.
Battery-1.Battery-rivet-0, Polymer-1.Polymer-rivet-0
** Constraint: BatPoly-1
*Tie, name=BatPoly-1, adjust=no, position tolerance=1.
Battery-1.Battery-rivet-1, Polymer-1.Polymer-rivet-1
** Constraint: BatPoly-2
*Tie, name=BatPoly-2, adjust=no, position tolerance=1.
Battery-1.Battery-rivet-2, Polymer-1.Polymer-rivet-2
** Constraint: BatPoly-3
*Tie, name=BatPoly-3, adjust=no, position tolerance=1.
Battery-1.Battery-rivet-3, Polymer-1.Polymer-rivet-3
** Constraint: CF1Poly
*Tie, name=CF1Poly, adjust=no, position tolerance=1.
Polymer-1.PolyBot, CF-1.CFtop
** Constraint: CF1Poly-Rivet-0
*Tie, name=CF1Poly-Rivet-0, adjust=no, position tolerance=1.
Polymer-1.Polymer-rivet-bot-0, CF-1.CFtop
** Constraint: CF1Poly-Rivet-1
*Tie, name=CF1Poly-Rivet-1, adjust=no, position tolerance=1.
Polymer-1.Polymer-rivet-bot-1, CF-1.CFtop
** Constraint: CF1Poly-Rivet-2
*Tie, name=CF1Poly-Rivet-2, adjust=no, position tolerance=1.
Polymer-1.Polymer-rivet-bot-2, CF-1.CFtop
** Constraint: CF1Poly-Rivet-3
*Tie, name=CF1Poly-Rivet-3, adjust=no, position tolerance=1.
Polymer-1.Polymer-rivet-bot-3, CF-1.CFtop
** Constraint: CF2Poly
*Tie, name=CF2Poly, adjust=no, position tolerance=1.
Polymer-1.PolyTop, CF-2.CFbot
** Constraint: CF2Poly-Rivet-0
*Tie, name=CF2Poly-Rivet-0, adjust=no, position tolerance=1.
Polymer-1.Polymer-rivet-top-0, CF-2.CFbot
** Constraint: CF2Poly-Rivet-1
*Tie, name=CF2Poly-Rivet-1, adjust=no, position tolerance=1.
Polymer-1.Polymer-rivet-top-1, CF-2.CFbot
** Constraint: CF2Poly-Rivet-2
*Tie, name=CF2Poly-Rivet-2, adjust=no, position tolerance=1.
Polymer-1.Polymer-rivet-top-2, CF-2.CFbot
** Constraint: CF2Poly-Rivet-3
*Tie, name=CF2Poly-Rivet-3, adjust=no, position tolerance=1.
Polymer-1.Polymer-rivet-top-3, CF-2.CFbot
** Constraint: LoadingRigidBody
*Rigid Body, ref node=_PickedSet14, tie nset=rigid_loading_set
*End Assembly
** 
** MATERIALS
** 
*Material, name=BatOrtho
*Elastic, type=ENGINEERING CONSTANTS
1090., 109., 500., 0.15, 0.15, 0.15, 474., 474.
 474.,
*Material, name=CF_material
*Elastic, type=ENGINEERING CONSTANTS
30420.,  4023.,  4023.,   0.29,   0.29, 0.3928,  2081.,  2081.
  1440.,
*Material, name=Polymer
*Elastic
500., 0.3
** 
** INTERACTION PROPERTIES
** 
*Surface Interaction, name=NormCont
1.,
*Friction, slip tolerance=0.005
 0.3,
*Surface Behavior, pressure-overclosure=HARD
** 
** INTERACTIONS
** 
** Interaction: CF1Bat
*Contact Pair, interaction=NormCont, type=SURFACE TO SURFACE
Battery-1.BatBot, CF-1.CFtop
** Interaction: CF2Bat
*Contact Pair, interaction=NormCont, type=SURFACE TO SURFACE
Battery-1.BatTop, CF-2.CFbot
** ----------------------------------------------------------------
** 
** STEP: Loading
** 
*Step, name=Loading, nlgeom=NO
*Static
1., 1., 1e-05, 1.
** 
** BOUNDARY CONDITIONS
** 
** Name: VerticalSupport Type: Displacement/Rotation
*Boundary
VerticalSupport, 3, 3
** Name: XDirSupport Type: Displacement/Rotation
*Boundary
XDirSupport, 1, 1
** Name: YDirSupport Type: Displacement/Rotation
*Boundary
YDirSupport, 2, 2
** 
** LOADS
** 
** Name: Load-1   Type: Pressure
*Dsload
_PickedSurf15, P, 0.181818
** 
** OUTPUT REQUESTS
** 
*Restart, write, frequency=0
** 
** FIELD OUTPUT: F-Output-1
** 
*Output, field
*Node Output
U, UR, UT
*Element Output, directions=YES
EVOL, 
** 
** HISTORY OUTPUT: H-Output-1
** 
*Output, history, variable=PRESELECT
*End Step
