1

   Abaqus 3DEXPERIENCE R2019x                                  Date 29-May-2019   Time 12:22:02
   For demonstration or benchmarking only under agreement with Dassault Systemes or its subsidiary.

                                                                                 
                                                                                 
 STEP    1     INCREMENT     1     STEP TIME    0.00    


                        S T E P       1     S T A T I C   A N A L Y S I S


                                                                                          

     AUTOMATIC TIME CONTROL WITH -
          A SUGGESTED INITIAL TIME INCREMENT OF                 1.00    
          AND A TOTAL TIME PERIOD OF                            1.00    
          THE MINIMUM TIME INCREMENT ALLOWED IS                1.000E-05
          THE MAXIMUM TIME INCREMENT ALLOWED IS                 1.00    

     LINEAR EQUATION SOLVER TYPE         DIRECT SPARSE

 CONVERGENCE TOLERANCE PARAMETERS FOR FORCE    
     CRITERION FOR RESIDUAL FORCE     FOR A NONLINEAR PROBLEM          5.000E-03
     CRITERION FOR DISP.    CORRECTION IN A NONLINEAR PROBLEM          1.000E-02
     INITIAL VALUE OF TIME AVERAGE FORCE                               1.000E-02
     AVERAGE FORCE     IS TIME AVERAGE FORCE    
     ALTERNATE CRIT. FOR RESIDUAL FORCE     FOR A NONLINEAR PROBLEM    2.000E-02
     CRITERION FOR ZERO FORCE     RELATIVE TO TIME AVRG. FORCE         1.000E-05
     CRITERION FOR RESIDUAL FORCE     WHEN THERE IS ZERO FLUX          1.000E-05
     CRITERION FOR DISP.    CORRECTION WHEN THERE IS ZERO FLUX         1.000E-03
     CRITERION FOR RESIDUAL FORCE     FOR A LINEAR INCREMENT           1.000E-08
     FIELD CONVERSION RATIO                                             1.00    
     CRITERION FOR ZERO FORCE     REL. TO TIME AVRG. MAX. FORCE        1.000E-05
     CRITERION FOR ZERO DISP.    RELATIVE TO CHARACTERISTIC LENGTH     1.000E-08

 CONVERGENCE TOLERANCE PARAMETERS FOR MOMENT   
     CRITERION FOR RESIDUAL MOMENT    FOR A NONLINEAR PROBLEM          5.000E-03
     CRITERION FOR ROTATION CORRECTION IN A NONLINEAR PROBLEM          1.000E-02
     INITIAL VALUE OF TIME AVERAGE MOMENT                              1.000E-02
     AVERAGE MOMENT    IS TIME AVERAGE MOMENT   
     ALTERNATE CRIT. FOR RESIDUAL MOMENT    FOR A NONLINEAR PROBLEM    2.000E-02
     CRITERION FOR ZERO MOMENT    RELATIVE TO TIME AVRG. MOMENT        1.000E-05
     CRITERION FOR RESIDUAL MOMENT    WHEN THERE IS ZERO FLUX          1.000E-05
     CRITERION FOR ROTATION CORRECTION WHEN THERE IS ZERO FLUX         1.000E-03
     CRITERION FOR RESIDUAL MOMENT    FOR A LINEAR INCREMENT           1.000E-08
     FIELD CONVERSION RATIO                                             1.00    
     CRITERION FOR ZERO MOMENT    REL. TO TIME AVRG. MAX. MOMENT       1.000E-05

     VOLUMETRIC STRAIN COMPATIBILITY TOLERANCE FOR HYBRID SOLIDS       1.000E-05
     AXIAL STRAIN COMPATIBILITY TOLERANCE FOR HYBRID BEAMS             1.000E-05
     TRANS. SHEAR STRAIN COMPATIBILITY TOLERANCE FOR HYBRID BEAMS      1.000E-05
     SOFT CONTACT CONSTRAINT COMPATIBILITY TOLERANCE FOR P>P0          5.000E-03
     SOFT CONTACT CONSTRAINT COMPATIBILITY TOLERANCE FOR P=0.0         0.100    
     CONTACT FORCE ERROR TOLERANCE FOR CONVERT SDI=YES                 1.00    
     DISPLACEMENT COMPATIBILITY TOLERANCE FOR DCOUP ELEMENTS           1.000E-05
     ROTATION COMPATIBILITY TOLERANCE FOR DCOUP ELEMENTS               1.000E-05

 EQUILIBRIUM WILL BE CHECKED FOR SEVERE DISCONTINUITY ITERATIONS

 TIME INCREMENTATION CONTROL PARAMETERS:
     FIRST EQUILIBRIUM ITERATION FOR CONSECUTIVE DIVERGENCE CHECK              4
     EQUILIBRIUM ITERATION AT WHICH LOG. CONVERGENCE RATE CHECK BEGINS         8
     EQUILIBRIUM ITERATION AFTER WHICH ALTERNATE RESIDUAL IS USED              9
     MAXIMUM EQUILIBRIUM ITERATIONS ALLOWED                                   16
     EQUILIBRIUM ITERATION COUNT FOR CUT-BACK IN NEXT INCREMENT               10
     MAXIMUM EQUILIB. ITERS IN TWO INCREMENTS FOR TIME INCREMENT INCREASE      4
     MAXIMUM ITERATIONS FOR SEVERE DISCONTINUITIES                            50
     MAXIMUM ATTEMPTS ALLOWED IN AN INCREMENT                                  5
     MAXIMUM DISCON. ITERS IN TWO INCREMENTS FOR TIME INCREMENT INCREASE      50
     MAXIMUM CONTACT AUGMENTATIONS FOR *SURFACE BEHAVIOR,AUGMENTED LAGRANGE   50
     CUT-BACK FACTOR AFTER DIVERGENCE                                 0.2500    
     CUT-BACK FACTOR FOR TOO SLOW CONVERGENCE                         0.5000    
     CUT-BACK FACTOR AFTER TOO MANY EQUILIBRIUM ITERATIONS            0.7500    
     CUT-BACK FACTOR AFTER TOO MANY SEVERE DISCONTINUITY ITERATIONS   0.2500    
     CUT-BACK FACTOR AFTER PROBLEMS IN ELEMENT ASSEMBLY               0.2500    
     INCREASE FACTOR AFTER TWO INCREMENTS THAT CONVERGE QUICKLY        1.500    
     MAX. TIME INCREMENT INCREASE FACTOR ALLOWED                       1.500    
     MAX. TIME INCREMENT INCREASE FACTOR ALLOWED (DYNAMICS)            1.250    
     MAX. TIME INCREMENT INCREASE FACTOR ALLOWED (DIFFUSION)           2.000    
     MINIMUM TIME INCREMENT RATIO FOR EXTRAPOLATION TO OCCUR          0.1000    
     MAX. RATIO OF TIME INCREMENT TO STABILITY LIMIT                   1.000    
     FRACTION OF STABILITY LIMIT FOR NEW TIME INCREMENT               0.9500    
     TIME INCREMENT INCREASE FACTOR BEFORE A TIME POINT                1.000    

 CONTACT CONTROLS APPLIED TO ALL CONTACT PAIRS:
     GLOBAL STABILIZATION CONTROL IS NOT USED
     RELATIVE PENETRATION TOLERANCE FOR AUGMENTED LAGRANGE CONTACT:
          FINITE-SLIDING SURFACE-TO-SURFACE                            5.000E-02
          OTHERWISE                                                    1.000E-03

          PRINT OF INCREMENT NUMBER, TIME, ETC., EVERY    1  INCREMENTS

     THE MAXIMUM NUMBER OF INCREMENTS IN THIS STEP IS                     100

          UNSYMMETRIC MATRIX STORAGE AND SOLUTION WILL BE USED

     LINEAR EXTRAPOLATION WILL BE USED

     CHARACTERISTIC ELEMENT LENGTH      2.73    

     DETAILS REGARDING ACTUAL SOLUTION WAVEFRONT REQUESTED

     DETAILED OUTPUT OF DIAGNOSTICS TO DATABASE REQUESTED

     PRINT OF INCREMENT NUMBER, TIME, ETC., TO THE MESSAGE FILE EVERY     1  INCREMENTS

     ELEMENT OPERATIONS WILL BE CARRIED OUT IN PARALLEL USING   6 PROCESSORS

     PARALLEL CONTACT TRACKING ENABLED


     COLLECTING MODEL CONSTRAINT INFORMATION FOR OVERCONSTRAINT CHECKS

     COLLECTING STEP CONSTRAINT INFORMATION FOR OVERCONSTRAINT CHECKS
  
     ASYNCHRONOUS OUTPUT DATABASE FRAME FLUSH STARTED
  


  INCREMENT     1 STARTS. ATTEMPT NUMBER  1, TIME INCREMENT   1.00    
  
     ASYNCHRONOUS TRACKING ELEMENT LOOP STARTED
  
 
     INITIAL ELEMENT LOAD BALANCE
            PROCESS    1   THREAD     NUMBER OF ELEMENTS
                              1            3072
                              2            3072
                              3            2840
                              4            2304
                              5            2560
                              6            2013

  NUMBER OF EQUATIONS =     30357     NUMBER OF RHS =    1
  NUMBER OF FLOATING PT. OPERATIONS =  9.50E+10

  USING THE DIRECT SOLVER WITH   6 PROCESSORS

     CHECK POINT   START OF SOLVER    

     CHECK POINT  END OF SOLVER       

       ELAPSED USER TIME (SEC)      =   11.700    
       ELAPSED SYSTEM TIME (SEC)    =   0.0000    
       ELAPSED TOTAL CPU TIME (SEC) =   11.700    
       ELAPSED WALLCLOCK TIME (SEC) =          2
 

 ***WARNING: SOLVER PROBLEM. NUMERICAL SINGULARITY WHEN PROCESSING NODE 
             ASSEMBLY.1 D.O.F. 6 RATIO = 244.058E+12  .
  
     ASYNCHRONOUS TRACKING ELEMENT LOOP STARTED
  

                 1223 SEVERE DISCONTINUITIES OCCURRED DURING THIS ITERATION.
                 1169 POINTS CHANGED FROM CLOSED TO OPEN
                   54 POINTS CHANGED FROM STICKING TO SLIPPING

               CONVERGENCE CHECKS FOR SEVERE DISCONTINUITY ITERATION     1

   MAX. PENETRATION ERROR 48.1224E-06  AT NODE BATTERY-1.440 OF CONTACT PAIR 
   (ASSEMBLY_BATTERY-1_BATBOT,ASSEMBLY_CF-1_CFTOP)
   MAX. CONTACT FORCE ERROR -1.34253     AT NODE BATTERY-1.2746 OF CONTACT PAIR 
   (ASSEMBLY_BATTERY-1_BATTOP,ASSEMBLY_CF-2_CFBOT)
          THE ESTIMATED CONTACT FORCE ERROR IS OUTSIDE OF CONVERGENCE TOLERANCES.

 AVERAGE FORCE                      0.187       TIME AVG. FORCE       0.187    
 LARGEST RESIDUAL FORCE             -10.3       AT NODE       1181   DOF  1
   INSTANCE: BATTERY-1                                                                       
 LARGEST INCREMENT OF DISP.        -0.155       AT NODE        563   DOF  3
   INSTANCE: POLYMER-1                                                                       
 LARGEST CORRECTION TO DISP.       -0.155       AT NODE        563   DOF  3
   INSTANCE: POLYMER-1                                                                       
          FORCE     EQUILIBRIUM NOT ACHIEVED WITHIN TOLERANCE.

 AVERAGE MOMENT                     6.854E-02   TIME AVG. MOMENT      6.854E-02
 LARGEST RESIDUAL MOMENT            -385.       AT NODE          1   DOF  6
   INSTANCE:                                                                                 
 LARGEST INCREMENT OF ROTATION     -5.128E-03   AT NODE          8   DOF  5
   INSTANCE: CF-1                                                                            
 LARGEST CORRECTION TO ROTATION    -5.128E-03   AT NODE          8   DOF  5
   INSTANCE: CF-1                                                                            
          MOMENT    EQUILIBRIUM NOT ACHIEVED WITHIN TOLERANCE.

  NUMBER OF EQUATIONS =     30357     NUMBER OF RHS =    1
  NUMBER OF FLOATING PT. OPERATIONS =  8.84E+10

  USING THE DIRECT SOLVER WITH   6 PROCESSORS

     CHECK POINT   START OF SOLVER    

     CHECK POINT  END OF SOLVER       

       ELAPSED USER TIME (SEC)      =   10.400    
       ELAPSED SYSTEM TIME (SEC)    =  0.10000    
       ELAPSED TOTAL CPU TIME (SEC) =   10.500    
       ELAPSED WALLCLOCK TIME (SEC) =          2
 

 ***WARNING: SOLVER PROBLEM. NUMERICAL SINGULARITY WHEN PROCESSING NODE 
             ASSEMBLY.1 D.O.F. 6 RATIO = 34.8516E+09 .
  
     ASYNCHRONOUS TRACKING ELEMENT LOOP STARTED
  

                 1390 SEVERE DISCONTINUITIES OCCURRED DURING THIS ITERATION.
                  476 POINTS CHANGED FROM OPEN TO CLOSED
                  564 POINTS CHANGED FROM CLOSED TO OPEN
                   15 POINTS CHANGED FROM SLIPPING TO STICKING
                  335 POINTS CHANGED FROM STICKING TO SLIPPING

               CONVERGENCE CHECKS FOR SEVERE DISCONTINUITY ITERATION     2

   MAX. PENETRATION ERROR 2.61759E-03 AT NODE BATTERY-1.2610 OF CONTACT PAIR 
   (ASSEMBLY_BATTERY-1_BATTOP,ASSEMBLY_CF-2_CFBOT)
   MAX. CONTACT FORCE ERROR 2.41183     AT NODE BATTERY-1.357 OF CONTACT PAIR 
   (ASSEMBLY_BATTERY-1_BATBOT,ASSEMBLY_CF-1_CFTOP)
          THE ESTIMATED CONTACT FORCE ERROR IS OUTSIDE OF CONVERGENCE TOLERANCES.

 AVERAGE FORCE                      0.209       TIME AVG. FORCE       0.209    
 LARGEST RESIDUAL FORCE              18.9       AT NODE          1   DOF  3
   INSTANCE:                                                                                 
 LARGEST INCREMENT OF DISP.          4.91       AT NODE         94   DOF  2
   INSTANCE: CF-1                                                                            
 LARGEST CORRECTION TO DISP.         4.91       AT NODE         94   DOF  2
   INSTANCE: CF-1                                                                            
          FORCE     EQUILIBRIUM NOT ACHIEVED WITHIN TOLERANCE.

 AVERAGE MOMENT                     0.124       TIME AVG. MOMENT      0.124    
 LARGEST RESIDUAL MOMENT            -60.9       AT NODE          1   DOF  4
   INSTANCE:                                                                                 
 LARGEST INCREMENT OF ROTATION     -4.506E-02   AT NODE         94   DOF  6
   INSTANCE: CF-1                                                                            
 LARGEST CORRECTION TO ROTATION    -4.509E-02   AT NODE         94   DOF  6
   INSTANCE: CF-1                                                                            
          MOMENT    EQUILIBRIUM NOT ACHIEVED WITHIN TOLERANCE.

  NUMBER OF EQUATIONS =     30357     NUMBER OF RHS =    1
  NUMBER OF FLOATING PT. OPERATIONS =  9.04E+10

  USING THE DIRECT SOLVER WITH   6 PROCESSORS

     CHECK POINT   START OF SOLVER    

     CHECK POINT  END OF SOLVER       

       ELAPSED USER TIME (SEC)      =   10.800    
       ELAPSED SYSTEM TIME (SEC)    =  0.10000    
       ELAPSED TOTAL CPU TIME (SEC) =   10.900    
       ELAPSED WALLCLOCK TIME (SEC) =          2
 

 ***WARNING: SOLVER PROBLEM. NUMERICAL SINGULARITY WHEN PROCESSING NODE 
             ASSEMBLY.1 D.O.F. 6 RATIO = 11.8378E+09 .
  
     ASYNCHRONOUS TRACKING ELEMENT LOOP STARTED
  

                  744 SEVERE DISCONTINUITIES OCCURRED DURING THIS ITERATION.
                  184 POINTS CHANGED FROM OPEN TO CLOSED
                  444 POINTS CHANGED FROM CLOSED TO OPEN
                    1 POINTS CHANGED FROM SLIPPING TO STICKING
                  115 POINTS CHANGED FROM STICKING TO SLIPPING

               CONVERGENCE CHECKS FOR SEVERE DISCONTINUITY ITERATION     3

   MAX. PENETRATION ERROR 267.731E-06   AT NODE BATTERY-1.662 OF CONTACT PAIR 
   (ASSEMBLY_BATTERY-1_BATBOT,ASSEMBLY_CF-1_CFTOP)
   MAX. CONTACT FORCE ERROR -1.59948     AT NODE BATTERY-1.2543 OF CONTACT PAIR 
   (ASSEMBLY_BATTERY-1_BATTOP,ASSEMBLY_CF-2_CFBOT)
          THE ESTIMATED CONTACT FORCE ERROR IS OUTSIDE OF CONVERGENCE TOLERANCES.

 AVERAGE FORCE                      0.210       TIME AVG. FORCE       0.210    
 LARGEST RESIDUAL FORCE              3.12       AT NODE          1   DOF  3
   INSTANCE:                                                                                 
 LARGEST INCREMENT OF DISP.          1.92       AT NODE          7   DOF  1
   INSTANCE: CF-1                                                                            
 LARGEST CORRECTION TO DISP.         6.80       AT NODE          7   DOF  1
   INSTANCE: CF-1                                                                            
          FORCE     EQUILIBRIUM NOT ACHIEVED WITHIN TOLERANCE.

 AVERAGE MOMENT                     0.129       TIME AVG. MOMENT      0.129    
 LARGEST RESIDUAL MOMENT             1.43       AT NODE          1   DOF  6
   INSTANCE:                                                                                 
 LARGEST INCREMENT OF ROTATION      1.761E-02   AT NODE         68   DOF  6
   INSTANCE: CF-1                                                                            
 LARGEST CORRECTION TO ROTATION     6.182E-02   AT NODE        658   DOF  6
   INSTANCE: CF-2                                                                            
          MOMENT    EQUILIBRIUM NOT ACHIEVED WITHIN TOLERANCE.

  NUMBER OF EQUATIONS =     30357     NUMBER OF RHS =    1
  NUMBER OF FLOATING PT. OPERATIONS =  8.57E+10

  USING THE DIRECT SOLVER WITH   6 PROCESSORS

     CHECK POINT   START OF SOLVER    

     CHECK POINT  END OF SOLVER       

       ELAPSED USER TIME (SEC)      =   9.8000    
       ELAPSED SYSTEM TIME (SEC)    =   0.0000    
       ELAPSED TOTAL CPU TIME (SEC) =   9.8000    
       ELAPSED WALLCLOCK TIME (SEC) =          2
 

 ***WARNING: SOLVER PROBLEM. NUMERICAL SINGULARITY WHEN PROCESSING NODE 
             ASSEMBLY.1 D.O.F. 6 RATIO = 11.1211E+09 .
  
     ASYNCHRONOUS TRACKING ELEMENT LOOP STARTED
  

                  489 SEVERE DISCONTINUITIES OCCURRED DURING THIS ITERATION.
                  121 POINTS CHANGED FROM OPEN TO CLOSED
                  282 POINTS CHANGED FROM CLOSED TO OPEN
                    1 POINTS CHANGED FROM SLIPPING TO STICKING
                   85 POINTS CHANGED FROM STICKING TO SLIPPING

               CONVERGENCE CHECKS FOR SEVERE DISCONTINUITY ITERATION     4

   MAX. PENETRATION ERROR 447.563E-06   AT NODE BATTERY-1.3192 OF CONTACT PAIR 
   (ASSEMBLY_BATTERY-1_BATTOP,ASSEMBLY_CF-2_CFBOT)
   MAX. CONTACT FORCE ERROR -1.21067     AT NODE BATTERY-1.3051 OF CONTACT PAIR 
   (ASSEMBLY_BATTERY-1_BATTOP,ASSEMBLY_CF-2_CFBOT)
          THE ESTIMATED CONTACT FORCE ERROR IS OUTSIDE OF CONVERGENCE TOLERANCES.

 AVERAGE FORCE                      0.209       TIME AVG. FORCE       0.209    
 LARGEST RESIDUAL FORCE             0.705       AT NODE        594   DOF  3
   INSTANCE: CF-2                                                                            
 LARGEST INCREMENT OF DISP.          1.47       AT NODE          7   DOF  1
   INSTANCE: CF-1                                                                            
 LARGEST CORRECTION TO DISP.        0.453       AT NODE        209   DOF  2
   INSTANCE: POLYMER-1                                                                       
          FORCE     EQUILIBRIUM NOT ACHIEVED WITHIN TOLERANCE.

 AVERAGE MOMENT                     0.130       TIME AVG. MOMENT      0.130    
 LARGEST RESIDUAL MOMENT             2.43       AT NODE          1   DOF  4
   INSTANCE:                                                                                 
 LARGEST INCREMENT OF ROTATION      1.350E-02   AT NODE         68   DOF  6
   INSTANCE: CF-1                                                                            
 LARGEST CORRECTION TO ROTATION    -4.123E-03   AT NODE         93   DOF  6
   INSTANCE: CF-1                                                                            
          MOMENT    EQUILIBRIUM NOT ACHIEVED WITHIN TOLERANCE.

  NUMBER OF EQUATIONS =     30357     NUMBER OF RHS =    1
  NUMBER OF FLOATING PT. OPERATIONS =  8.16E+10

  USING THE DIRECT SOLVER WITH   6 PROCESSORS

     CHECK POINT   START OF SOLVER    

     CHECK POINT  END OF SOLVER       

       ELAPSED USER TIME (SEC)      =   9.7000    
       ELAPSED SYSTEM TIME (SEC)    =   0.0000    
       ELAPSED TOTAL CPU TIME (SEC) =   9.7000    
       ELAPSED WALLCLOCK TIME (SEC) =          1
 

 ***WARNING: SOLVER PROBLEM. NUMERICAL SINGULARITY WHEN PROCESSING NODE 
             ASSEMBLY.1 D.O.F. 6 RATIO = 11.7069E+09 .
  
     ASYNCHRONOUS TRACKING ELEMENT LOOP STARTED
  

                  300 SEVERE DISCONTINUITIES OCCURRED DURING THIS ITERATION.
                   88 POINTS CHANGED FROM OPEN TO CLOSED
                  164 POINTS CHANGED FROM CLOSED TO OPEN
                    1 POINTS CHANGED FROM SLIPPING TO STICKING
                   47 POINTS CHANGED FROM STICKING TO SLIPPING

               CONVERGENCE CHECKS FOR SEVERE DISCONTINUITY ITERATION     5

   MAX. PENETRATION ERROR 221.965E-06   AT NODE BATTERY-1.3060 OF CONTACT PAIR 
   (ASSEMBLY_BATTERY-1_BATTOP,ASSEMBLY_CF-2_CFBOT)
   MAX. CONTACT FORCE ERROR -1.17220     AT NODE BATTERY-1.3128 OF CONTACT PAIR 
   (ASSEMBLY_BATTERY-1_BATTOP,ASSEMBLY_CF-2_CFBOT)
          THE ESTIMATED CONTACT FORCE ERROR IS OUTSIDE OF CONVERGENCE TOLERANCES.

 AVERAGE FORCE                      0.209       TIME AVG. FORCE       0.209    
 LARGEST RESIDUAL FORCE             0.693       AT NODE        558   DOF  3
   INSTANCE: CF-2                                                                            
 LARGEST INCREMENT OF DISP.          1.44       AT NODE          7   DOF  1
   INSTANCE: CF-1                                                                            
 LARGEST CORRECTION TO DISP.        2.512E-02   AT NODE         94   DOF  2
   INSTANCE: CF-1                                                                            
          FORCE     EQUILIBRIUM NOT ACHIEVED WITHIN TOLERANCE.

 AVERAGE MOMENT                     0.131       TIME AVG. MOMENT      0.131    
 LARGEST RESIDUAL MOMENT           -6.421E-02   AT NODE          1   DOF  4
   INSTANCE:                                                                                 
 LARGEST INCREMENT OF ROTATION      1.327E-02   AT NODE         68   DOF  6
   INSTANCE: CF-1                                                                            
 LARGEST CORRECTION TO ROTATION     4.960E-04   AT NODE        565   DOF  5
   INSTANCE: CF-2                                                                            
          MOMENT    EQUILIBRIUM NOT ACHIEVED WITHIN TOLERANCE.

  NUMBER OF EQUATIONS =     30357     NUMBER OF RHS =    1
  NUMBER OF FLOATING PT. OPERATIONS =  7.83E+10

  USING THE DIRECT SOLVER WITH   6 PROCESSORS

     CHECK POINT   START OF SOLVER    

     CHECK POINT  END OF SOLVER       

       ELAPSED USER TIME (SEC)      =   9.1000    
       ELAPSED SYSTEM TIME (SEC)    =   0.0000    
       ELAPSED TOTAL CPU TIME (SEC) =   9.1000    
       ELAPSED WALLCLOCK TIME (SEC) =          2
 

 ***WARNING: SOLVER PROBLEM. NUMERICAL SINGULARITY WHEN PROCESSING NODE 
             ASSEMBLY.1 D.O.F. 6 RATIO = 12.6314E+09 .
  
     ASYNCHRONOUS TRACKING ELEMENT LOOP STARTED
  

                  331 SEVERE DISCONTINUITIES OCCURRED DURING THIS ITERATION.
                  122 POINTS CHANGED FROM OPEN TO CLOSED
                  145 POINTS CHANGED FROM CLOSED TO OPEN
                   64 POINTS CHANGED FROM STICKING TO SLIPPING

               CONVERGENCE CHECKS FOR SEVERE DISCONTINUITY ITERATION     6

   MAX. PENETRATION ERROR 521.127E-06   AT NODE BATTERY-1.3306 OF CONTACT PAIR 
   (ASSEMBLY_BATTERY-1_BATTOP,ASSEMBLY_CF-2_CFBOT)
   MAX. CONTACT FORCE ERROR -1.07247     AT NODE BATTERY-1.3192 OF CONTACT PAIR 
   (ASSEMBLY_BATTERY-1_BATTOP,ASSEMBLY_CF-2_CFBOT)
          THE ESTIMATED CONTACT FORCE ERROR IS OUTSIDE OF CONVERGENCE TOLERANCES.

 AVERAGE FORCE                      0.208       TIME AVG. FORCE       0.208    
 LARGEST RESIDUAL FORCE             0.615       AT NODE        522   DOF  3
   INSTANCE: CF-2                                                                            
 LARGEST INCREMENT OF DISP.          1.28       AT NODE          7   DOF  1
   INSTANCE: CF-1                                                                            
 LARGEST CORRECTION TO DISP.        0.163       AT NODE         93   DOF  2
   INSTANCE: CF-1                                                                            
          FORCE     EQUILIBRIUM NOT ACHIEVED WITHIN TOLERANCE.

 AVERAGE MOMENT                     0.132       TIME AVG. MOMENT      0.132    
 LARGEST RESIDUAL MOMENT           -4.777E-04   AT NODE          1   DOF  6
   INSTANCE:                                                                                 
 LARGEST INCREMENT OF ROTATION      1.179E-02   AT NODE         68   DOF  6
   INSTANCE: CF-1                                                                            
 LARGEST CORRECTION TO ROTATION    -1.487E-03   AT NODE         93   DOF  6
   INSTANCE: CF-1                                                                            
 ESTIMATE OF ROTATION CORRECTION   -1.106E-05
 MOMENT    EQUILIB. ACCEPTED BASED ON SMALL RESIDUAL AND ESTIMATED CORRECTION

  NUMBER OF EQUATIONS =     30357     NUMBER OF RHS =    1
  NUMBER OF FLOATING PT. OPERATIONS =  7.20E+10

  USING THE DIRECT SOLVER WITH   6 PROCESSORS

     CHECK POINT   START OF SOLVER    

     CHECK POINT  END OF SOLVER       

       ELAPSED USER TIME (SEC)      =   8.4000    
       ELAPSED SYSTEM TIME (SEC)    =   0.0000    
       ELAPSED TOTAL CPU TIME (SEC) =   8.4000    
       ELAPSED WALLCLOCK TIME (SEC) =          1
 

 ***WARNING: SOLVER PROBLEM. NUMERICAL SINGULARITY WHEN PROCESSING NODE 
             ASSEMBLY.1 D.O.F. 6 RATIO = 13.1922E+09 .
  
     ASYNCHRONOUS TRACKING ELEMENT LOOP STARTED
  

                  243 SEVERE DISCONTINUITIES OCCURRED DURING THIS ITERATION.
                   94 POINTS CHANGED FROM OPEN TO CLOSED
                  123 POINTS CHANGED FROM CLOSED TO OPEN
                   26 POINTS CHANGED FROM STICKING TO SLIPPING

               CONVERGENCE CHECKS FOR SEVERE DISCONTINUITY ITERATION     7

   MAX. PENETRATION ERROR 253.552E-06   AT NODE BATTERY-1.3328 OF CONTACT PAIR 
   (ASSEMBLY_BATTERY-1_BATTOP,ASSEMBLY_CF-2_CFBOT)
   MAX. CONTACT FORCE ERROR -1.10158     AT NODE BATTERY-1.3254 OF CONTACT PAIR 
   (ASSEMBLY_BATTERY-1_BATTOP,ASSEMBLY_CF-2_CFBOT)
          THE ESTIMATED CONTACT FORCE ERROR IS OUTSIDE OF CONVERGENCE TOLERANCES.

 AVERAGE FORCE                      0.208       TIME AVG. FORCE       0.208    
 LARGEST RESIDUAL FORCE            -0.626       AT NODE       3254   DOF  3
   INSTANCE: BATTERY-1                                                                       
 LARGEST INCREMENT OF DISP.          1.28       AT NODE          7   DOF  1
   INSTANCE: CF-1                                                                            
 LARGEST CORRECTION TO DISP.        2.737E-03   AT NODE        564   DOF  3
   INSTANCE: CF-2                                                                            
          FORCE     EQUILIBRIUM NOT ACHIEVED WITHIN TOLERANCE.

 AVERAGE MOMENT                     0.133       TIME AVG. MOMENT      0.133    
 LARGEST RESIDUAL MOMENT           -3.693E-03   AT NODE          1   DOF  4
   INSTANCE:                                                                                 
 LARGEST INCREMENT OF ROTATION      1.181E-02   AT NODE         68   DOF  6
   INSTANCE: CF-1                                                                            
 LARGEST CORRECTION TO ROTATION     4.925E-04   AT NODE        522   DOF  5
   INSTANCE: CF-2                                                                            
          MOMENT    EQUILIBRIUM NOT ACHIEVED WITHIN TOLERANCE.

  NUMBER OF EQUATIONS =     30357     NUMBER OF RHS =    1
  NUMBER OF FLOATING PT. OPERATIONS =  7.12E+10

  USING THE DIRECT SOLVER WITH   6 PROCESSORS

     CHECK POINT   START OF SOLVER    

     CHECK POINT  END OF SOLVER       

       ELAPSED USER TIME (SEC)      =   8.4000    
       ELAPSED SYSTEM TIME (SEC)    =  0.10000    
       ELAPSED TOTAL CPU TIME (SEC) =   8.5000    
       ELAPSED WALLCLOCK TIME (SEC) =          1
 

 ***WARNING: SOLVER PROBLEM. NUMERICAL SINGULARITY WHEN PROCESSING NODE 
             ASSEMBLY.1 D.O.F. 6 RATIO = 13.5448E+09 .
  
     ASYNCHRONOUS TRACKING ELEMENT LOOP STARTED
  

                  234 SEVERE DISCONTINUITIES OCCURRED DURING THIS ITERATION.
                   74 POINTS CHANGED FROM OPEN TO CLOSED
                  122 POINTS CHANGED FROM CLOSED TO OPEN
                   38 POINTS CHANGED FROM STICKING TO SLIPPING

               CONVERGENCE CHECKS FOR SEVERE DISCONTINUITY ITERATION     8

   MAX. PENETRATION ERROR 378.311E-06   AT NODE BATTERY-1.3344 OF CONTACT PAIR 
   (ASSEMBLY_BATTERY-1_BATTOP,ASSEMBLY_CF-2_CFBOT)
   MAX. CONTACT FORCE ERROR -975.044E-03   AT NODE BATTERY-1.3306 OF CONTACT 
   PAIR (ASSEMBLY_BATTERY-1_BATTOP,ASSEMBLY_CF-2_CFBOT)
          THE ESTIMATED CONTACT FORCE ERROR IS OUTSIDE OF CONVERGENCE TOLERANCES.

 AVERAGE FORCE                      0.208       TIME AVG. FORCE       0.208    
 LARGEST RESIDUAL FORCE            -0.552       AT NODE       3306   DOF  3
   INSTANCE: BATTERY-1                                                                       
 LARGEST INCREMENT OF DISP.          1.23       AT NODE          7   DOF  1
   INSTANCE: CF-1                                                                            
 LARGEST CORRECTION TO DISP.        4.871E-02   AT NODE         93   DOF  2
   INSTANCE: CF-1                                                                            
          FORCE     EQUILIBRIUM NOT ACHIEVED WITHIN TOLERANCE.

 AVERAGE MOMENT                     0.133       TIME AVG. MOMENT      0.133    
 LARGEST RESIDUAL MOMENT           -5.371E-04   AT NODE          1   DOF  6
   INSTANCE:                                                                                 
 LARGEST INCREMENT OF ROTATION      1.137E-02   AT NODE         68   DOF  6
   INSTANCE: CF-1                                                                            
 LARGEST CORRECTION TO ROTATION     5.954E-04   AT NODE        486   DOF  5
   INSTANCE: CF-2                                                                            
          ROTATION CORRECTION TOO LARGE COMPARED TO ROTATION INCREMENT

  NUMBER OF EQUATIONS =     30357     NUMBER OF RHS =    1
  NUMBER OF FLOATING PT. OPERATIONS =  7.00E+10

  USING THE DIRECT SOLVER WITH   6 PROCESSORS

     CHECK POINT   START OF SOLVER    

     CHECK POINT  END OF SOLVER       

       ELAPSED USER TIME (SEC)      =   8.4000    
       ELAPSED SYSTEM TIME (SEC)    =   0.0000    
       ELAPSED TOTAL CPU TIME (SEC) =   8.4000    
       ELAPSED WALLCLOCK TIME (SEC) =          2
 

 ***WARNING: SOLVER PROBLEM. NUMERICAL SINGULARITY WHEN PROCESSING NODE 
             ASSEMBLY.1 D.O.F. 6 RATIO = 14.2061E+09 .
  
     ASYNCHRONOUS TRACKING ELEMENT LOOP STARTED
  

                  184 SEVERE DISCONTINUITIES OCCURRED DURING THIS ITERATION.
                   69 POINTS CHANGED FROM OPEN TO CLOSED
                  101 POINTS CHANGED FROM CLOSED TO OPEN
                   14 POINTS CHANGED FROM STICKING TO SLIPPING

               CONVERGENCE CHECKS FOR SEVERE DISCONTINUITY ITERATION     9

   MAX. PENETRATION ERROR 237.750E-06   AT NODE BATTERY-1.3492 OF CONTACT PAIR 
   (ASSEMBLY_BATTERY-1_BATTOP,ASSEMBLY_CF-2_CFBOT)
   MAX. CONTACT FORCE ERROR -651.856E-03   AT NODE BATTERY-1.3656 OF CONTACT 
   PAIR (ASSEMBLY_BATTERY-1_BATTOP,ASSEMBLY_CF-2_CFBOT)
          THE ESTIMATED CONTACT FORCE ERROR IS OUTSIDE OF CONVERGENCE TOLERANCES.

 AVERAGE FORCE                      0.208       TIME AVG. FORCE       0.208    
 LARGEST RESIDUAL FORCE            -0.418       AT NODE       3656   DOF  3
   INSTANCE: BATTERY-1                                                                       
 LARGEST INCREMENT OF DISP.          1.25       AT NODE          7   DOF  1
   INSTANCE: CF-1                                                                            
 LARGEST CORRECTION TO DISP.        1.371E-02   AT NODE        101   DOF  1
   INSTANCE: CF-2                                                                            
          FORCE     EQUILIBRIUM NOT ACHIEVED WITHIN TOLERANCE.

 AVERAGE MOMENT                     0.134       TIME AVG. MOMENT      0.134    
 LARGEST RESIDUAL MOMENT           -4.269E-04   AT NODE          1   DOF  6
   INSTANCE:                                                                                 
 LARGEST INCREMENT OF ROTATION      1.149E-02   AT NODE         68   DOF  6
   INSTANCE: CF-1                                                                            
 LARGEST CORRECTION TO ROTATION     4.483E-04   AT NODE        450   DOF  5
   INSTANCE: CF-2                                                                            
          ROTATION CORRECTION TOO LARGE COMPARED TO ROTATION INCREMENT

  NUMBER OF EQUATIONS =     30357     NUMBER OF RHS =    1
  NUMBER OF FLOATING PT. OPERATIONS =  6.93E+10

  USING THE DIRECT SOLVER WITH   6 PROCESSORS

     CHECK POINT   START OF SOLVER    

     CHECK POINT  END OF SOLVER       

       ELAPSED USER TIME (SEC)      =   8.2000    
       ELAPSED SYSTEM TIME (SEC)    =  0.10000    
       ELAPSED TOTAL CPU TIME (SEC) =   8.3000    
       ELAPSED WALLCLOCK TIME (SEC) =          1
 

 ***WARNING: SOLVER PROBLEM. NUMERICAL SINGULARITY WHEN PROCESSING NODE 
             ASSEMBLY.1 D.O.F. 6 RATIO = 14.5003E+09 .
  
     ASYNCHRONOUS TRACKING ELEMENT LOOP STARTED
  

                  163 SEVERE DISCONTINUITIES OCCURRED DURING THIS ITERATION.
                   58 POINTS CHANGED FROM OPEN TO CLOSED
                   90 POINTS CHANGED FROM CLOSED TO OPEN
                   15 POINTS CHANGED FROM STICKING TO SLIPPING

               CONVERGENCE CHECKS FOR SEVERE DISCONTINUITY ITERATION    10

   MAX. PENETRATION ERROR 317.744E-06   AT NODE BATTERY-1.3291 OF CONTACT PAIR 
   (ASSEMBLY_BATTERY-1_BATTOP,ASSEMBLY_CF-2_CFBOT)
   MAX. CONTACT FORCE ERROR -722.216E-03   AT NODE BATTERY-1.3344 OF CONTACT 
   PAIR (ASSEMBLY_BATTERY-1_BATTOP,ASSEMBLY_CF-2_CFBOT)
          THE ESTIMATED CONTACT FORCE ERROR IS OUTSIDE OF CONVERGENCE TOLERANCES.

 AVERAGE FORCE                      0.208       TIME AVG. FORCE       0.208    
 LARGEST RESIDUAL FORCE            -0.420       AT NODE       3344   DOF  3
   INSTANCE: BATTERY-1                                                                       
 LARGEST INCREMENT OF DISP.          1.20       AT NODE          7   DOF  1
   INSTANCE: CF-1                                                                            
 LARGEST CORRECTION TO DISP.        4.476E-02   AT NODE         93   DOF  2
   INSTANCE: CF-1                                                                            
          FORCE     EQUILIBRIUM NOT ACHIEVED WITHIN TOLERANCE.

 AVERAGE MOMENT                     0.134       TIME AVG. MOMENT      0.134    
 LARGEST RESIDUAL MOMENT           -4.014E-04   AT NODE          1   DOF  6
   INSTANCE:                                                                                 
 LARGEST INCREMENT OF ROTATION      1.109E-02   AT NODE         68   DOF  6
   INSTANCE: CF-1                                                                            
 LARGEST CORRECTION TO ROTATION     5.748E-04   AT NODE        414   DOF  5
   INSTANCE: CF-2                                                                            
          ROTATION CORRECTION TOO LARGE COMPARED TO ROTATION INCREMENT

  NUMBER OF EQUATIONS =     30357     NUMBER OF RHS =    1
  NUMBER OF FLOATING PT. OPERATIONS =  6.87E+10

  USING THE DIRECT SOLVER WITH   6 PROCESSORS

     CHECK POINT   START OF SOLVER    

     CHECK POINT  END OF SOLVER       

       ELAPSED USER TIME (SEC)      =   8.1000    
       ELAPSED SYSTEM TIME (SEC)    =  0.10000    
       ELAPSED TOTAL CPU TIME (SEC) =   8.2000    
       ELAPSED WALLCLOCK TIME (SEC) =          1
 

 ***WARNING: SOLVER PROBLEM. NUMERICAL SINGULARITY WHEN PROCESSING NODE 
             ASSEMBLY.1 D.O.F. 6 RATIO = 15.1527E+09 .
  
     ASYNCHRONOUS TRACKING ELEMENT LOOP STARTED
  

                  109 SEVERE DISCONTINUITIES OCCURRED DURING THIS ITERATION.
                   31 POINTS CHANGED FROM OPEN TO CLOSED
                   76 POINTS CHANGED FROM CLOSED TO OPEN
                    2 POINTS CHANGED FROM STICKING TO SLIPPING

               CONVERGENCE CHECKS FOR SEVERE DISCONTINUITY ITERATION    11

   MAX. PENETRATION ERROR 206.153E-06   AT NODE BATTERY-1.3565 OF CONTACT PAIR 
   (ASSEMBLY_BATTERY-1_BATTOP,ASSEMBLY_CF-2_CFBOT)
   MAX. CONTACT FORCE ERROR -666.198E-03   AT NODE BATTERY-1.3394 OF CONTACT 
   PAIR (ASSEMBLY_BATTERY-1_BATTOP,ASSEMBLY_CF-2_CFBOT)
          THE ESTIMATED CONTACT FORCE ERROR IS OUTSIDE OF CONVERGENCE TOLERANCES.

 AVERAGE FORCE                      0.208       TIME AVG. FORCE       0.208    
 LARGEST RESIDUAL FORCE            -0.382       AT NODE       3394   DOF  3
   INSTANCE: BATTERY-1                                                                       
 LARGEST INCREMENT OF DISP.          1.19       AT NODE          7   DOF  1
   INSTANCE: CF-1                                                                            
 LARGEST CORRECTION TO DISP.        9.294E-03   AT NODE         94   DOF  2
   INSTANCE: CF-1                                                                            
          FORCE     EQUILIBRIUM NOT ACHIEVED WITHIN TOLERANCE.

 AVERAGE MOMENT                     0.134       TIME AVG. MOMENT      0.134    
 LARGEST RESIDUAL MOMENT            6.697E-03   AT NODE          1   DOF  4
   INSTANCE:                                                                                 
 LARGEST INCREMENT OF ROTATION      1.100E-02   AT NODE         68   DOF  6
   INSTANCE: CF-1                                                                            
 LARGEST CORRECTION TO ROTATION     5.514E-04   AT NODE        378   DOF  5
   INSTANCE: CF-2                                                                            
          MOMENT    EQUILIBRIUM NOT ACHIEVED WITHIN TOLERANCE.

  NUMBER OF EQUATIONS =     30357     NUMBER OF RHS =    1
  NUMBER OF FLOATING PT. OPERATIONS =  6.83E+10

  USING THE DIRECT SOLVER WITH   6 PROCESSORS

     CHECK POINT   START OF SOLVER    

     CHECK POINT  END OF SOLVER       

       ELAPSED USER TIME (SEC)      =   8.3000    
       ELAPSED SYSTEM TIME (SEC)    =   0.0000    
       ELAPSED TOTAL CPU TIME (SEC) =   8.3000    
       ELAPSED WALLCLOCK TIME (SEC) =          2
 

 ***WARNING: SOLVER PROBLEM. NUMERICAL SINGULARITY WHEN PROCESSING NODE 
             ASSEMBLY.1 D.O.F. 6 RATIO = 15.3980E+09 .
  
     ASYNCHRONOUS TRACKING ELEMENT LOOP STARTED
  

                   95 SEVERE DISCONTINUITIES OCCURRED DURING THIS ITERATION.
                   21 POINTS CHANGED FROM OPEN TO CLOSED
                   73 POINTS CHANGED FROM CLOSED TO OPEN
                    1 POINTS CHANGED FROM STICKING TO SLIPPING

               CONVERGENCE CHECKS FOR SEVERE DISCONTINUITY ITERATION    12

   MAX. PENETRATION ERROR 98.7722E-06  AT NODE BATTERY-1.3256 OF CONTACT PAIR 
   (ASSEMBLY_BATTERY-1_BATTOP,ASSEMBLY_CF-2_CFBOT)
   MAX. CONTACT FORCE ERROR -584.529E-03   AT NODE BATTERY-1.3526 OF CONTACT 
   PAIR (ASSEMBLY_BATTERY-1_BATTOP,ASSEMBLY_CF-2_CFBOT)
          THE ESTIMATED CONTACT FORCE ERROR IS OUTSIDE OF CONVERGENCE TOLERANCES.

 AVERAGE FORCE                      0.208       TIME AVG. FORCE       0.208    
 LARGEST RESIDUAL FORCE            -0.365       AT NODE       3526   DOF  3
   INSTANCE: BATTERY-1                                                                       
 LARGEST INCREMENT OF DISP.          1.17       AT NODE          7   DOF  1
   INSTANCE: CF-1                                                                            
 LARGEST CORRECTION TO DISP.        2.356E-02   AT NODE         94   DOF  2
   INSTANCE: CF-1                                                                            
          FORCE     EQUILIBRIUM NOT ACHIEVED WITHIN TOLERANCE.

 AVERAGE MOMENT                     0.134       TIME AVG. MOMENT      0.134    
 LARGEST RESIDUAL MOMENT           -6.600E-03   AT NODE          1   DOF  4
   INSTANCE:                                                                                 
 LARGEST INCREMENT OF ROTATION      1.079E-02   AT NODE         68   DOF  6
   INSTANCE: CF-1                                                                            
 LARGEST CORRECTION TO ROTATION     4.529E-04   AT NODE        348   DOF  5
   INSTANCE: CF-2                                                                            
          MOMENT    EQUILIBRIUM NOT ACHIEVED WITHIN TOLERANCE.

  NUMBER OF EQUATIONS =     30357     NUMBER OF RHS =    1
  NUMBER OF FLOATING PT. OPERATIONS =  6.68E+10

  USING THE DIRECT SOLVER WITH   6 PROCESSORS

     CHECK POINT   START OF SOLVER    

     CHECK POINT  END OF SOLVER       

       ELAPSED USER TIME (SEC)      =   7.9000    
       ELAPSED SYSTEM TIME (SEC)    =   0.0000    
       ELAPSED TOTAL CPU TIME (SEC) =   7.9000    
       ELAPSED WALLCLOCK TIME (SEC) =          2
 

 ***WARNING: SOLVER PROBLEM. NUMERICAL SINGULARITY WHEN PROCESSING NODE 
             ASSEMBLY.1 D.O.F. 6 RATIO = 15.7386E+09 .
  
     ASYNCHRONOUS TRACKING ELEMENT LOOP STARTED
  

                   78 SEVERE DISCONTINUITIES OCCURRED DURING THIS ITERATION.
                   27 POINTS CHANGED FROM OPEN TO CLOSED
                   51 POINTS CHANGED FROM CLOSED TO OPEN

               CONVERGENCE CHECKS FOR SEVERE DISCONTINUITY ITERATION    13

   MAX. PENETRATION ERROR 246.506E-06   AT NODE BATTERY-1.3614 OF CONTACT PAIR 
   (ASSEMBLY_BATTERY-1_BATTOP,ASSEMBLY_CF-2_CFBOT)
   MAX. CONTACT FORCE ERROR -472.205E-03   AT NODE BATTERY-1.3481 OF CONTACT 
   PAIR (ASSEMBLY_BATTERY-1_BATTOP,ASSEMBLY_CF-2_CFBOT)
          THE ESTIMATED CONTACT FORCE ERROR IS OUTSIDE OF CONVERGENCE TOLERANCES.

 AVERAGE FORCE                      0.208       TIME AVG. FORCE       0.208    
 LARGEST RESIDUAL FORCE             0.347       AT NODE        306   DOF  3
   INSTANCE: CF-2                                                                            
 LARGEST INCREMENT OF DISP.          1.17       AT NODE          7   DOF  1
   INSTANCE: CF-1                                                                            
 LARGEST CORRECTION TO DISP.        3.798E-03   AT NODE        420   DOF  3
   INSTANCE: CF-2                                                                            
          FORCE     EQUILIBRIUM NOT ACHIEVED WITHIN TOLERANCE.

 AVERAGE MOMENT                     0.133       TIME AVG. MOMENT      0.133    
 LARGEST RESIDUAL MOMENT           -0.256       AT NODE          1   DOF  4
   INSTANCE:                                                                                 
 LARGEST INCREMENT OF ROTATION      1.079E-02   AT NODE         68   DOF  6
   INSTANCE: CF-1                                                                            
 LARGEST CORRECTION TO ROTATION     5.073E-04   AT NODE        313   DOF  5
   INSTANCE: CF-2                                                                            
          MOMENT    EQUILIBRIUM NOT ACHIEVED WITHIN TOLERANCE.

  NUMBER OF EQUATIONS =     30357     NUMBER OF RHS =    1
  NUMBER OF FLOATING PT. OPERATIONS =  6.58E+10

  USING THE DIRECT SOLVER WITH   6 PROCESSORS

     CHECK POINT   START OF SOLVER    

     CHECK POINT  END OF SOLVER       

       ELAPSED USER TIME (SEC)      =   7.8000    
       ELAPSED SYSTEM TIME (SEC)    =  0.10000    
       ELAPSED TOTAL CPU TIME (SEC) =   7.9000    
       ELAPSED WALLCLOCK TIME (SEC) =          1
 

 ***WARNING: SOLVER PROBLEM. NUMERICAL SINGULARITY WHEN PROCESSING NODE 
             ASSEMBLY.1 D.O.F. 6 RATIO = 16.2318E+09 .
  
     ASYNCHRONOUS TRACKING ELEMENT LOOP STARTED
  

                   66 SEVERE DISCONTINUITIES OCCURRED DURING THIS ITERATION.
                   33 POINTS CHANGED FROM OPEN TO CLOSED
                   33 POINTS CHANGED FROM CLOSED TO OPEN

               CONVERGENCE CHECKS FOR SEVERE DISCONTINUITY ITERATION    14

   MAX. PENETRATION ERROR 122.199E-06   AT NODE BATTERY-1.1125 OF CONTACT PAIR 
   (ASSEMBLY_BATTERY-1_BATBOT,ASSEMBLY_CF-1_CFTOP)
   MAX. CONTACT FORCE ERROR -636.201E-03   AT NODE BATTERY-1.3387 OF CONTACT 
   PAIR (ASSEMBLY_BATTERY-1_BATTOP,ASSEMBLY_CF-2_CFBOT)
          THE ESTIMATED CONTACT FORCE ERROR IS OUTSIDE OF CONVERGENCE TOLERANCES.

 AVERAGE FORCE                      0.208       TIME AVG. FORCE       0.208    
 LARGEST RESIDUAL FORCE            -0.356       AT NODE       3387   DOF  3
   INSTANCE: BATTERY-1                                                                       
 LARGEST INCREMENT OF DISP.          1.11       AT NODE          7   DOF  1
   INSTANCE: CF-1                                                                            
 LARGEST CORRECTION TO DISP.        6.237E-02   AT NODE         94   DOF  2
   INSTANCE: CF-1                                                                            
          FORCE     EQUILIBRIUM NOT ACHIEVED WITHIN TOLERANCE.

 AVERAGE MOMENT                     0.133       TIME AVG. MOMENT      0.133    
 LARGEST RESIDUAL MOMENT           -8.658E-03   AT NODE          1   DOF  4
   INSTANCE:                                                                                 
 LARGEST INCREMENT OF ROTATION      1.022E-02   AT NODE         68   DOF  6
   INSTANCE: CF-1                                                                            
 LARGEST CORRECTION TO ROTATION    -5.678E-04   AT NODE        320   DOF  6
   INSTANCE: CF-2                                                                            
          MOMENT    EQUILIBRIUM NOT ACHIEVED WITHIN TOLERANCE.

  NUMBER OF EQUATIONS =     30357     NUMBER OF RHS =    1
  NUMBER OF FLOATING PT. OPERATIONS =  6.65E+10

  USING THE DIRECT SOLVER WITH   6 PROCESSORS

     CHECK POINT   START OF SOLVER    

     CHECK POINT  END OF SOLVER       

       ELAPSED USER TIME (SEC)      =   7.9000    
       ELAPSED SYSTEM TIME (SEC)    =   0.0000    
       ELAPSED TOTAL CPU TIME (SEC) =   7.9000    
       ELAPSED WALLCLOCK TIME (SEC) =          1
 

 ***WARNING: SOLVER PROBLEM. NUMERICAL SINGULARITY WHEN PROCESSING NODE 
             ASSEMBLY.1 D.O.F. 6 RATIO = 16.7382E+09 .
  
     ASYNCHRONOUS TRACKING ELEMENT LOOP STARTED
  

                   39 SEVERE DISCONTINUITIES OCCURRED DURING THIS ITERATION.
                   10 POINTS CHANGED FROM OPEN TO CLOSED
                   29 POINTS CHANGED FROM CLOSED TO OPEN

               CONVERGENCE CHECKS FOR SEVERE DISCONTINUITY ITERATION    15

   MAX. PENETRATION ERROR 34.4609E-06  AT NODE BATTERY-1.858 OF CONTACT PAIR 
   (ASSEMBLY_BATTERY-1_BATBOT,ASSEMBLY_CF-1_CFTOP)
   MAX. CONTACT FORCE ERROR -162.581E-03   AT NODE BATTERY-1.3437 OF CONTACT 
   PAIR (ASSEMBLY_BATTERY-1_BATTOP,ASSEMBLY_CF-2_CFBOT)
          THE CONTACT CONSTRAINT ERRORS ARE WITHIN THE TOLERANCES.

 AVERAGE FORCE                      0.208       TIME AVG. FORCE       0.208    
 LARGEST RESIDUAL FORCE            -9.195E-02   AT NODE       3437   DOF  3
   INSTANCE: BATTERY-1                                                                       
 LARGEST INCREMENT OF DISP.          1.15       AT NODE          7   DOF  1
   INSTANCE: CF-1                                                                            
 LARGEST CORRECTION TO DISP.        4.055E-02   AT NODE          4   DOF  1
   INSTANCE: CF-2                                                                            
          FORCE     EQUILIBRIUM NOT ACHIEVED WITHIN TOLERANCE.

 AVERAGE MOMENT                     0.133       TIME AVG. MOMENT      0.133    
 LARGEST RESIDUAL MOMENT            8.491E-03   AT NODE          1   DOF  4
   INSTANCE:                                                                                 
 LARGEST INCREMENT OF ROTATION      1.059E-02   AT NODE         68   DOF  6
   INSTANCE: CF-1                                                                            
 LARGEST CORRECTION TO ROTATION     3.692E-04   AT NODE        273   DOF  6
   INSTANCE: CF-2                                                                            
          MOMENT    EQUILIBRIUM NOT ACHIEVED WITHIN TOLERANCE.

  NUMBER OF EQUATIONS =     30357     NUMBER OF RHS =    1
  NUMBER OF FLOATING PT. OPERATIONS =  6.59E+10

  USING THE DIRECT SOLVER WITH   6 PROCESSORS

     CHECK POINT   START OF SOLVER    

     CHECK POINT  END OF SOLVER       

       ELAPSED USER TIME (SEC)      =   7.7000    
       ELAPSED SYSTEM TIME (SEC)    =   0.0000    
       ELAPSED TOTAL CPU TIME (SEC) =   7.7000    
       ELAPSED WALLCLOCK TIME (SEC) =          1
 

 ***WARNING: SOLVER PROBLEM. NUMERICAL SINGULARITY WHEN PROCESSING NODE 
             ASSEMBLY.1 D.O.F. 6 RATIO = 16.9392E+09 .
  
     ASYNCHRONOUS TRACKING ELEMENT LOOP STARTED
  

                   18 SEVERE DISCONTINUITIES OCCURRED DURING THIS ITERATION.
                    2 POINTS CHANGED FROM OPEN TO CLOSED
                   15 POINTS CHANGED FROM CLOSED TO OPEN
                    1 POINTS CHANGED FROM STICKING TO SLIPPING

               CONVERGENCE CHECKS FOR SEVERE DISCONTINUITY ITERATION    16

   MAX. PENETRATION ERROR 2.61959E-06 AT NODE BATTERY-1.3788 OF CONTACT PAIR 
   (ASSEMBLY_BATTERY-1_BATTOP,ASSEMBLY_CF-2_CFBOT)
   MAX. CONTACT FORCE ERROR -22.2811E-03  AT NODE BATTERY-1.3348 OF CONTACT 
   PAIR (ASSEMBLY_BATTERY-1_BATTOP,ASSEMBLY_CF-2_CFBOT)
          THE CONTACT CONSTRAINT ERRORS ARE WITHIN THE TOLERANCES.

 AVERAGE FORCE                      0.208       TIME AVG. FORCE       0.208    
 LARGEST RESIDUAL FORCE            -1.254E-02   AT NODE       3348   DOF  3
   INSTANCE: BATTERY-1                                                                       
 LARGEST INCREMENT OF DISP.          1.11       AT NODE          7   DOF  1
   INSTANCE: CF-1                                                                            
 LARGEST CORRECTION TO DISP.        3.505E-02   AT NODE         95   DOF  2
   INSTANCE: CF-1                                                                            
          FORCE     EQUILIBRIUM NOT ACHIEVED WITHIN TOLERANCE.

 AVERAGE MOMENT                     0.133       TIME AVG. MOMENT      0.133    
 LARGEST RESIDUAL MOMENT            2.204E-03   AT NODE          1   DOF  4
   INSTANCE:                                                                                 
 LARGEST INCREMENT OF ROTATION      1.027E-02   AT NODE         68   DOF  6
   INSTANCE: CF-1                                                                            
 LARGEST CORRECTION TO ROTATION    -3.189E-04   AT NODE        270   DOF  6
   INSTANCE: CF-2                                                                            
          MOMENT    EQUILIBRIUM NOT ACHIEVED WITHIN TOLERANCE.

  NUMBER OF EQUATIONS =     30357     NUMBER OF RHS =    1
  NUMBER OF FLOATING PT. OPERATIONS =  6.43E+10

  USING THE DIRECT SOLVER WITH   6 PROCESSORS

     CHECK POINT   START OF SOLVER    

     CHECK POINT  END OF SOLVER       

       ELAPSED USER TIME (SEC)      =   7.6000    
       ELAPSED SYSTEM TIME (SEC)    =  0.10000    
       ELAPSED TOTAL CPU TIME (SEC) =   7.7000    
       ELAPSED WALLCLOCK TIME (SEC) =          2
 

 ***WARNING: SOLVER PROBLEM. NUMERICAL SINGULARITY WHEN PROCESSING NODE 
             ASSEMBLY.1 D.O.F. 6 RATIO = 16.9720E+09 .
  
     ASYNCHRONOUS TRACKING ELEMENT LOOP STARTED
  

               CONVERGENCE CHECKS FOR EQUILIBRIUM ITERATION     1

   MAX. PENETRATION ERROR -42.1025E-12  AT NODE BATTERY-1.3345 OF CONTACT PAIR 
   (ASSEMBLY_BATTERY-1_BATTOP,ASSEMBLY_CF-2_CFBOT)
   MAX. CONTACT FORCE ERROR -48.9361E-09  AT NODE BATTERY-1.3345 OF CONTACT 
   PAIR (ASSEMBLY_BATTERY-1_BATTOP,ASSEMBLY_CF-2_CFBOT)
          THE CONTACT CONSTRAINTS HAVE CONVERGED.

 AVERAGE FORCE                      0.208       TIME AVG. FORCE       0.208    
 LARGEST RESIDUAL FORCE             1.995E-05   AT NODE       1366   DOF  2
   INSTANCE: CF-1                                                                            
 LARGEST INCREMENT OF DISP.          1.14       AT NODE          7   DOF  1
   INSTANCE: CF-1                                                                            
 LARGEST CORRECTION TO DISP.        3.149E-02   AT NODE        489   DOF  1
   INSTANCE: POLYMER-1                                                                       
 ESTIMATE OF DISP.    CORRECTION   -2.819E-05
 FORCE     EQUILIB. ACCEPTED BASED ON SMALL RESIDUAL AND ESTIMATED CORRECTION

 AVERAGE MOMENT                     0.133       TIME AVG. MOMENT      0.133    
 LARGEST RESIDUAL MOMENT           -7.966E-05   AT NODE          1   DOF  4
   INSTANCE:                                                                                 
 LARGEST INCREMENT OF ROTATION      1.056E-02   AT NODE         68   DOF  6
   INSTANCE: CF-1                                                                            
 LARGEST CORRECTION TO ROTATION     2.863E-04   AT NODE        270   DOF  6
   INSTANCE: CF-2                                                                            
 ESTIMATE OF ROTATION CORRECTION   -1.035E-05
 MOMENT    EQUILIB. ACCEPTED BASED ON SMALL RESIDUAL AND ESTIMATED CORRECTION

 ITERATION SUMMARY FOR THE INCREMENT:  17 TOTAL ITERATIONS, OF WHICH
  16 ARE SEVERE DISCONTINUITY ITERATIONS AND  1 ARE EQUILIBRIUM ITERATIONS.

 TIME INCREMENT COMPLETED   1.00    ,  FRACTION OF STEP COMPLETED   1.00    
 STEP TIME COMPLETED        1.00    ,  TOTAL TIME COMPLETED         1.00    


          THE ANALYSIS HAS BEEN COMPLETED



     ANALYSIS SUMMARY:
     TOTAL OF          1  INCREMENTS
                       0  CUTBACKS IN AUTOMATIC INCREMENTATION
                      17  ITERATIONS INCLUDING CONTACT ITERATIONS IF PRESENT
                      17  PASSES THROUGH THE EQUATION SOLVER OF WHICH 
                      17  INVOLVE MATRIX DECOMPOSITION, INCLUDING
                       0  DECOMPOSITION(S) OF THE MASS MATRIX
                       1  REORDERING OF EQUATIONS TO MINIMIZE WAVEFRONT
                       0  ADDITIONAL RESIDUAL EVALUATIONS FOR LINE SEARCHES
                       0  ADDITIONAL OPERATOR EVALUATIONS FOR LINE SEARCHES
                       0  WARNING MESSAGES DURING USER INPUT PROCESSING
                      17  WARNING MESSAGES DURING ANALYSIS
                      17  ANALYSIS WARNINGS ARE NUMERICAL PROBLEM MESSAGES
                       0  ANALYSIS WARNINGS ARE NEGATIVE EIGENVALUE MESSAGES
                       0  ERROR MESSAGES



     JOB TIME SUMMARY
       USER TIME (SEC)      =   217.80    
       SYSTEM TIME (SEC)    =   4.6000    
       TOTAL CPU TIME (SEC) =   222.40    
       WALLCLOCK TIME (SEC) =         48
