1

   Abaqus 3DEXPERIENCE R2019x                                  Date 29-May-2019   Time 12:27:46
   For demonstration or benchmarking only under agreement with Dassault Systemes or its subsidiary.

                                                                                 
                                                                                 
 STEP    1     INCREMENT     1     STEP TIME    0.00    


                        S T E P       1     S T A T I C   A N A L Y S I S


                                                                                          

     AUTOMATIC TIME CONTROL WITH -
          A SUGGESTED INITIAL TIME INCREMENT OF                 1.00    
          AND A TOTAL TIME PERIOD OF                            1.00    
          THE MINIMUM TIME INCREMENT ALLOWED IS                1.000E-05
          THE MAXIMUM TIME INCREMENT ALLOWED IS                 1.00    

     LINEAR EQUATION SOLVER TYPE         DIRECT SPARSE

 CONVERGENCE TOLERANCE PARAMETERS FOR FORCE    
     CRITERION FOR RESIDUAL FORCE     FOR A NONLINEAR PROBLEM          5.000E-03
     CRITERION FOR DISP.    CORRECTION IN A NONLINEAR PROBLEM          1.000E-02
     INITIAL VALUE OF TIME AVERAGE FORCE                               1.000E-02
     AVERAGE FORCE     IS TIME AVERAGE FORCE    
     ALTERNATE CRIT. FOR RESIDUAL FORCE     FOR A NONLINEAR PROBLEM    2.000E-02
     CRITERION FOR ZERO FORCE     RELATIVE TO TIME AVRG. FORCE         1.000E-05
     CRITERION FOR RESIDUAL FORCE     WHEN THERE IS ZERO FLUX          1.000E-05
     CRITERION FOR DISP.    CORRECTION WHEN THERE IS ZERO FLUX         1.000E-03
     CRITERION FOR RESIDUAL FORCE     FOR A LINEAR INCREMENT           1.000E-08
     FIELD CONVERSION RATIO                                             1.00    
     CRITERION FOR ZERO FORCE     REL. TO TIME AVRG. MAX. FORCE        1.000E-05
     CRITERION FOR ZERO DISP.    RELATIVE TO CHARACTERISTIC LENGTH     1.000E-08

 CONVERGENCE TOLERANCE PARAMETERS FOR MOMENT   
     CRITERION FOR RESIDUAL MOMENT    FOR A NONLINEAR PROBLEM          5.000E-03
     CRITERION FOR ROTATION CORRECTION IN A NONLINEAR PROBLEM          1.000E-02
     INITIAL VALUE OF TIME AVERAGE MOMENT                              1.000E-02
     AVERAGE MOMENT    IS TIME AVERAGE MOMENT   
     ALTERNATE CRIT. FOR RESIDUAL MOMENT    FOR A NONLINEAR PROBLEM    2.000E-02
     CRITERION FOR ZERO MOMENT    RELATIVE TO TIME AVRG. MOMENT        1.000E-05
     CRITERION FOR RESIDUAL MOMENT    WHEN THERE IS ZERO FLUX          1.000E-05
     CRITERION FOR ROTATION CORRECTION WHEN THERE IS ZERO FLUX         1.000E-03
     CRITERION FOR RESIDUAL MOMENT    FOR A LINEAR INCREMENT           1.000E-08
     FIELD CONVERSION RATIO                                             1.00    
     CRITERION FOR ZERO MOMENT    REL. TO TIME AVRG. MAX. MOMENT       1.000E-05

     VOLUMETRIC STRAIN COMPATIBILITY TOLERANCE FOR HYBRID SOLIDS       1.000E-05
     AXIAL STRAIN COMPATIBILITY TOLERANCE FOR HYBRID BEAMS             1.000E-05
     TRANS. SHEAR STRAIN COMPATIBILITY TOLERANCE FOR HYBRID BEAMS      1.000E-05
     SOFT CONTACT CONSTRAINT COMPATIBILITY TOLERANCE FOR P>P0          5.000E-03
     SOFT CONTACT CONSTRAINT COMPATIBILITY TOLERANCE FOR P=0.0         0.100    
     CONTACT FORCE ERROR TOLERANCE FOR CONVERT SDI=YES                 1.00    
     DISPLACEMENT COMPATIBILITY TOLERANCE FOR DCOUP ELEMENTS           1.000E-05
     ROTATION COMPATIBILITY TOLERANCE FOR DCOUP ELEMENTS               1.000E-05

 EQUILIBRIUM WILL BE CHECKED FOR SEVERE DISCONTINUITY ITERATIONS

 TIME INCREMENTATION CONTROL PARAMETERS:
     FIRST EQUILIBRIUM ITERATION FOR CONSECUTIVE DIVERGENCE CHECK              4
     EQUILIBRIUM ITERATION AT WHICH LOG. CONVERGENCE RATE CHECK BEGINS         8
     EQUILIBRIUM ITERATION AFTER WHICH ALTERNATE RESIDUAL IS USED              9
     MAXIMUM EQUILIBRIUM ITERATIONS ALLOWED                                   16
     EQUILIBRIUM ITERATION COUNT FOR CUT-BACK IN NEXT INCREMENT               10
     MAXIMUM EQUILIB. ITERS IN TWO INCREMENTS FOR TIME INCREMENT INCREASE      4
     MAXIMUM ITERATIONS FOR SEVERE DISCONTINUITIES                            50
     MAXIMUM ATTEMPTS ALLOWED IN AN INCREMENT                                  5
     MAXIMUM DISCON. ITERS IN TWO INCREMENTS FOR TIME INCREMENT INCREASE      50
     MAXIMUM CONTACT AUGMENTATIONS FOR *SURFACE BEHAVIOR,AUGMENTED LAGRANGE   50
     CUT-BACK FACTOR AFTER DIVERGENCE                                 0.2500    
     CUT-BACK FACTOR FOR TOO SLOW CONVERGENCE                         0.5000    
     CUT-BACK FACTOR AFTER TOO MANY EQUILIBRIUM ITERATIONS            0.7500    
     CUT-BACK FACTOR AFTER TOO MANY SEVERE DISCONTINUITY ITERATIONS   0.2500    
     CUT-BACK FACTOR AFTER PROBLEMS IN ELEMENT ASSEMBLY               0.2500    
     INCREASE FACTOR AFTER TWO INCREMENTS THAT CONVERGE QUICKLY        1.500    
     MAX. TIME INCREMENT INCREASE FACTOR ALLOWED                       1.500    
     MAX. TIME INCREMENT INCREASE FACTOR ALLOWED (DYNAMICS)            1.250    
     MAX. TIME INCREMENT INCREASE FACTOR ALLOWED (DIFFUSION)           2.000    
     MINIMUM TIME INCREMENT RATIO FOR EXTRAPOLATION TO OCCUR          0.1000    
     MAX. RATIO OF TIME INCREMENT TO STABILITY LIMIT                   1.000    
     FRACTION OF STABILITY LIMIT FOR NEW TIME INCREMENT               0.9500    
     TIME INCREMENT INCREASE FACTOR BEFORE A TIME POINT                1.000    

 CONTACT CONTROLS APPLIED TO ALL CONTACT PAIRS:
     GLOBAL STABILIZATION CONTROL IS NOT USED
     RELATIVE PENETRATION TOLERANCE FOR AUGMENTED LAGRANGE CONTACT:
          FINITE-SLIDING SURFACE-TO-SURFACE                            5.000E-02
          OTHERWISE                                                    1.000E-03

          PRINT OF INCREMENT NUMBER, TIME, ETC., EVERY    1  INCREMENTS

     THE MAXIMUM NUMBER OF INCREMENTS IN THIS STEP IS                     100

          UNSYMMETRIC MATRIX STORAGE AND SOLUTION WILL BE USED

     LINEAR EXTRAPOLATION WILL BE USED

     CHARACTERISTIC ELEMENT LENGTH      2.77    

     DETAILS REGARDING ACTUAL SOLUTION WAVEFRONT REQUESTED

     DETAILED OUTPUT OF DIAGNOSTICS TO DATABASE REQUESTED

     PRINT OF INCREMENT NUMBER, TIME, ETC., TO THE MESSAGE FILE EVERY     1  INCREMENTS

     ELEMENT OPERATIONS WILL BE CARRIED OUT IN PARALLEL USING   6 PROCESSORS

     PARALLEL CONTACT TRACKING ENABLED


     COLLECTING MODEL CONSTRAINT INFORMATION FOR OVERCONSTRAINT CHECKS

     COLLECTING STEP CONSTRAINT INFORMATION FOR OVERCONSTRAINT CHECKS
  
     ASYNCHRONOUS OUTPUT DATABASE FRAME FLUSH STARTED
  


  INCREMENT     1 STARTS. ATTEMPT NUMBER  1, TIME INCREMENT   1.00    
  
     ASYNCHRONOUS TRACKING ELEMENT LOOP STARTED
  
 
     INITIAL ELEMENT LOAD BALANCE
            PROCESS    1   THREAD     NUMBER OF ELEMENTS
                              1            1024
                              2            2560
                              3            3072
                              4            2816
                              5            2913
                              6            2592

  NUMBER OF EQUATIONS =     29571     NUMBER OF RHS =    1
  NUMBER OF FLOATING PT. OPERATIONS =  1.05E+11

  USING THE DIRECT SOLVER WITH   6 PROCESSORS

     CHECK POINT   START OF SOLVER    

     CHECK POINT  END OF SOLVER       

       ELAPSED USER TIME (SEC)      =   12.500    
       ELAPSED SYSTEM TIME (SEC)    =   0.0000    
       ELAPSED TOTAL CPU TIME (SEC) =   12.500    
       ELAPSED WALLCLOCK TIME (SEC) =          2
 

 ***WARNING: SOLVER PROBLEM. NUMERICAL SINGULARITY WHEN PROCESSING NODE 
             ASSEMBLY.1 D.O.F. 6 RATIO = 280.637E+12  .
  
     ASYNCHRONOUS TRACKING ELEMENT LOOP STARTED
  

                 1102 SEVERE DISCONTINUITIES OCCURRED DURING THIS ITERATION.
                 1102 POINTS CHANGED FROM CLOSED TO OPEN

               CONVERGENCE CHECKS FOR SEVERE DISCONTINUITY ITERATION     1

   MAX. PENETRATION ERROR 24.6802E-06  AT NODE BATTERY-1.772 OF CONTACT PAIR 
   (ASSEMBLY_BATTERY-1_BATBOT,ASSEMBLY_CF-1_CFTOP)
   MAX. CONTACT FORCE ERROR -1.73171     AT NODE BATTERY-1.2589 OF CONTACT PAIR 
   (ASSEMBLY_BATTERY-1_BATTOP,ASSEMBLY_CF-2_CFBOT)
          THE ESTIMATED CONTACT FORCE ERROR IS OUTSIDE OF CONVERGENCE TOLERANCES.

 AVERAGE FORCE                      0.188       TIME AVG. FORCE       0.188    
 LARGEST RESIDUAL FORCE             -6.82       AT NODE          1   DOF  3
   INSTANCE:                                                                                 
 LARGEST INCREMENT OF DISP.        -0.136       AT NODE        575   DOF  3
   INSTANCE: POLYMER-1                                                                       
 LARGEST CORRECTION TO DISP.       -0.136       AT NODE        575   DOF  3
   INSTANCE: POLYMER-1                                                                       
          FORCE     EQUILIBRIUM NOT ACHIEVED WITHIN TOLERANCE.

 AVERAGE MOMENT                     5.625E-02   TIME AVG. MOMENT      5.625E-02
 LARGEST RESIDUAL MOMENT             44.7       AT NODE          1   DOF  4
   INSTANCE:                                                                                 
 LARGEST INCREMENT OF ROTATION      4.318E-03   AT NODE          3   DOF  5
   INSTANCE: CF-1                                                                            
 LARGEST CORRECTION TO ROTATION     4.318E-03   AT NODE          3   DOF  5
   INSTANCE: CF-1                                                                            
          MOMENT    EQUILIBRIUM NOT ACHIEVED WITHIN TOLERANCE.

  NUMBER OF EQUATIONS =     29571     NUMBER OF RHS =    1
  NUMBER OF FLOATING PT. OPERATIONS =  9.68E+10

  USING THE DIRECT SOLVER WITH   6 PROCESSORS

     CHECK POINT   START OF SOLVER    

     CHECK POINT  END OF SOLVER       

       ELAPSED USER TIME (SEC)      =   11.200    
       ELAPSED SYSTEM TIME (SEC)    =  0.10000    
       ELAPSED TOTAL CPU TIME (SEC) =   11.300    
       ELAPSED WALLCLOCK TIME (SEC) =          1
 

 ***WARNING: SOLVER PROBLEM. NUMERICAL SINGULARITY WHEN PROCESSING NODE 
             ASSEMBLY.1 D.O.F. 6 RATIO = 92.1554E+09 .
  
     ASYNCHRONOUS TRACKING ELEMENT LOOP STARTED
  

                 1243 SEVERE DISCONTINUITIES OCCURRED DURING THIS ITERATION.
                  505 POINTS CHANGED FROM OPEN TO CLOSED
                  536 POINTS CHANGED FROM CLOSED TO OPEN
                  202 POINTS CHANGED FROM STICKING TO SLIPPING

               CONVERGENCE CHECKS FOR SEVERE DISCONTINUITY ITERATION     2

   MAX. PENETRATION ERROR 1.87111E-03 AT NODE BATTERY-1.2442 OF CONTACT PAIR 
   (ASSEMBLY_BATTERY-1_BATTOP,ASSEMBLY_CF-2_CFBOT)
   MAX. CONTACT FORCE ERROR -2.24499     AT NODE BATTERY-1.2360 OF CONTACT PAIR 
   (ASSEMBLY_BATTERY-1_BATTOP,ASSEMBLY_CF-2_CFBOT)
          THE ESTIMATED CONTACT FORCE ERROR IS OUTSIDE OF CONVERGENCE TOLERANCES.

 AVERAGE FORCE                      0.215       TIME AVG. FORCE       0.215    
 LARGEST RESIDUAL FORCE              19.4       AT NODE          1   DOF  3
   INSTANCE:                                                                                 
 LARGEST INCREMENT OF DISP.          5.12       AT NODE          7   DOF  1
   INSTANCE: CF-1                                                                            
 LARGEST CORRECTION TO DISP.         5.11       AT NODE          7   DOF  1
   INSTANCE: CF-1                                                                            
          FORCE     EQUILIBRIUM NOT ACHIEVED WITHIN TOLERANCE.

 AVERAGE MOMENT                     0.119       TIME AVG. MOMENT      0.119    
 LARGEST RESIDUAL MOMENT            -80.2       AT NODE          1   DOF  4
   INSTANCE:                                                                                 
 LARGEST INCREMENT OF ROTATION      4.668E-02   AT NODE        173   DOF  6
   INSTANCE: CF-1                                                                            
 LARGEST CORRECTION TO ROTATION     4.674E-02   AT NODE        173   DOF  6
   INSTANCE: CF-1                                                                            
          MOMENT    EQUILIBRIUM NOT ACHIEVED WITHIN TOLERANCE.

  NUMBER OF EQUATIONS =     29571     NUMBER OF RHS =    1
  NUMBER OF FLOATING PT. OPERATIONS =  9.55E+10

  USING THE DIRECT SOLVER WITH   6 PROCESSORS

     CHECK POINT   START OF SOLVER    

     CHECK POINT  END OF SOLVER       

       ELAPSED USER TIME (SEC)      =   11.200    
       ELAPSED SYSTEM TIME (SEC)    =   0.0000    
       ELAPSED TOTAL CPU TIME (SEC) =   11.200    
       ELAPSED WALLCLOCK TIME (SEC) =          1
 

 ***WARNING: SOLVER PROBLEM. NUMERICAL SINGULARITY WHEN PROCESSING NODE 
             ASSEMBLY.1 D.O.F. 6 RATIO = 16.5830E+09 .
  
     ASYNCHRONOUS TRACKING ELEMENT LOOP STARTED
  

                  736 SEVERE DISCONTINUITIES OCCURRED DURING THIS ITERATION.
                  189 POINTS CHANGED FROM OPEN TO CLOSED
                  451 POINTS CHANGED FROM CLOSED TO OPEN
                   96 POINTS CHANGED FROM STICKING TO SLIPPING

               CONVERGENCE CHECKS FOR SEVERE DISCONTINUITY ITERATION     3

   MAX. PENETRATION ERROR 246.888E-06   AT NODE BATTERY-1.430 OF CONTACT PAIR 
   (ASSEMBLY_BATTERY-1_BATBOT,ASSEMBLY_CF-1_CFTOP)
   MAX. CONTACT FORCE ERROR -817.993E-03   AT NODE BATTERY-1.2358 OF CONTACT 
   PAIR (ASSEMBLY_BATTERY-1_BATTOP,ASSEMBLY_CF-2_CFBOT)
          THE ESTIMATED CONTACT FORCE ERROR IS OUTSIDE OF CONVERGENCE TOLERANCES.

 AVERAGE FORCE                      0.216       TIME AVG. FORCE       0.216    
 LARGEST RESIDUAL FORCE              2.80       AT NODE          1   DOF  3
   INSTANCE:                                                                                 
 LARGEST INCREMENT OF DISP.         0.523       AT NODE          7   DOF  1
   INSTANCE: CF-1                                                                            
 LARGEST CORRECTION TO DISP.        -4.60       AT NODE         98   DOF  1
   INSTANCE: CF-1                                                                            
          FORCE     EQUILIBRIUM NOT ACHIEVED WITHIN TOLERANCE.

 AVERAGE MOMENT                     0.123       TIME AVG. MOMENT      0.123    
 LARGEST RESIDUAL MOMENT            -20.6       AT NODE          1   DOF  4
   INSTANCE:                                                                                 
 LARGEST INCREMENT OF ROTATION      7.563E-03   AT NODE        640   DOF  5
   INSTANCE: CF-2                                                                            
 LARGEST CORRECTION TO ROTATION    -4.183E-02   AT NODE        201   DOF  6
   INSTANCE: CF-1                                                                            
          MOMENT    EQUILIBRIUM NOT ACHIEVED WITHIN TOLERANCE.

  NUMBER OF EQUATIONS =     29571     NUMBER OF RHS =    1
  NUMBER OF FLOATING PT. OPERATIONS =  8.88E+10

  USING THE DIRECT SOLVER WITH   6 PROCESSORS

     CHECK POINT   START OF SOLVER    

     CHECK POINT  END OF SOLVER       

       ELAPSED USER TIME (SEC)      =   10.300    
       ELAPSED SYSTEM TIME (SEC)    =  0.10000    
       ELAPSED TOTAL CPU TIME (SEC) =   10.400    
       ELAPSED WALLCLOCK TIME (SEC) =          2
 

 ***WARNING: SOLVER PROBLEM. NUMERICAL SINGULARITY WHEN PROCESSING NODE 
             ASSEMBLY.1 D.O.F. 6 RATIO = 14.5852E+09 .
  
     ASYNCHRONOUS TRACKING ELEMENT LOOP STARTED
  

                  423 SEVERE DISCONTINUITIES OCCURRED DURING THIS ITERATION.
                  110 POINTS CHANGED FROM OPEN TO CLOSED
                  271 POINTS CHANGED FROM CLOSED TO OPEN
                   42 POINTS CHANGED FROM STICKING TO SLIPPING

               CONVERGENCE CHECKS FOR SEVERE DISCONTINUITY ITERATION     4

   MAX. PENETRATION ERROR 408.872E-06   AT NODE BATTERY-1.104 OF CONTACT PAIR 
   (ASSEMBLY_BATTERY-1_BATBOT,ASSEMBLY_CF-1_CFTOP)
   MAX. CONTACT FORCE ERROR -1.19959     AT NODE BATTERY-1.2376 OF CONTACT PAIR 
   (ASSEMBLY_BATTERY-1_BATTOP,ASSEMBLY_CF-2_CFBOT)
          THE ESTIMATED CONTACT FORCE ERROR IS OUTSIDE OF CONVERGENCE TOLERANCES.

 AVERAGE FORCE                      0.216       TIME AVG. FORCE       0.216    
 LARGEST RESIDUAL FORCE             0.507       AT NODE        564   DOF  3
   INSTANCE: CF-2                                                                            
 LARGEST INCREMENT OF DISP.         0.921       AT NODE          7   DOF  1
   INSTANCE: CF-1                                                                            
 LARGEST CORRECTION TO DISP.        0.398       AT NODE         98   DOF  1
   INSTANCE: CF-2                                                                            
          FORCE     EQUILIBRIUM NOT ACHIEVED WITHIN TOLERANCE.

 AVERAGE MOMENT                     0.124       TIME AVG. MOMENT      0.124    
 LARGEST RESIDUAL MOMENT            -2.61       AT NODE          1   DOF  4
   INSTANCE:                                                                                 
 LARGEST INCREMENT OF ROTATION      8.503E-03   AT NODE        173   DOF  6
   INSTANCE: CF-1                                                                            
 LARGEST CORRECTION TO ROTATION     3.623E-03   AT NODE         93   DOF  6
   INSTANCE: CF-2                                                                            
          MOMENT    EQUILIBRIUM NOT ACHIEVED WITHIN TOLERANCE.

  NUMBER OF EQUATIONS =     29571     NUMBER OF RHS =    1
  NUMBER OF FLOATING PT. OPERATIONS =  8.91E+10

  USING THE DIRECT SOLVER WITH   6 PROCESSORS

     CHECK POINT   START OF SOLVER    

     CHECK POINT  END OF SOLVER       

       ELAPSED USER TIME (SEC)      =   10.300    
       ELAPSED SYSTEM TIME (SEC)    =   0.0000    
       ELAPSED TOTAL CPU TIME (SEC) =   10.300    
       ELAPSED WALLCLOCK TIME (SEC) =          2
 

 ***WARNING: SOLVER PROBLEM. NUMERICAL SINGULARITY WHEN PROCESSING NODE 
             ASSEMBLY.1 D.O.F. 6 RATIO = 15.6725E+09 .
  
     ASYNCHRONOUS TRACKING ELEMENT LOOP STARTED
  

                  297 SEVERE DISCONTINUITIES OCCURRED DURING THIS ITERATION.
                   87 POINTS CHANGED FROM OPEN TO CLOSED
                  164 POINTS CHANGED FROM CLOSED TO OPEN
                   46 POINTS CHANGED FROM STICKING TO SLIPPING

               CONVERGENCE CHECKS FOR SEVERE DISCONTINUITY ITERATION     5

   MAX. PENETRATION ERROR 264.852E-06   AT NODE BATTERY-1.512 OF CONTACT PAIR 
   (ASSEMBLY_BATTERY-1_BATBOT,ASSEMBLY_CF-1_CFTOP)
   MAX. CONTACT FORCE ERROR -761.456E-03   AT NODE BATTERY-1.3443 OF CONTACT 
   PAIR (ASSEMBLY_BATTERY-1_BATTOP,ASSEMBLY_CF-2_CFBOT)
          THE ESTIMATED CONTACT FORCE ERROR IS OUTSIDE OF CONVERGENCE TOLERANCES.

 AVERAGE FORCE                      0.216       TIME AVG. FORCE       0.216    
 LARGEST RESIDUAL FORCE             0.529       AT NODE        528   DOF  3
   INSTANCE: CF-2                                                                            
 LARGEST INCREMENT OF DISP.         0.674       AT NODE          7   DOF  1
   INSTANCE: CF-1                                                                            
 LARGEST CORRECTION TO DISP.        0.247       AT NODE         94   DOF  2
   INSTANCE: CF-1                                                                            
          FORCE     EQUILIBRIUM NOT ACHIEVED WITHIN TOLERANCE.

 AVERAGE MOMENT                     0.125       TIME AVG. MOMENT      0.125    
 LARGEST RESIDUAL MOMENT            3.310E-03   AT NODE        534   DOF  5
   INSTANCE: CF-2                                                                            
 LARGEST INCREMENT OF ROTATION      7.348E-03   AT NODE        676   DOF  5
   INSTANCE: CF-1                                                                            
 LARGEST CORRECTION TO ROTATION    -2.248E-03   AT NODE        564   DOF  6
   INSTANCE: CF-2                                                                            
          MOMENT    EQUILIBRIUM NOT ACHIEVED WITHIN TOLERANCE.

  NUMBER OF EQUATIONS =     29571     NUMBER OF RHS =    1
  NUMBER OF FLOATING PT. OPERATIONS =  8.44E+10

  USING THE DIRECT SOLVER WITH   6 PROCESSORS

     CHECK POINT   START OF SOLVER    

     CHECK POINT  END OF SOLVER       

       ELAPSED USER TIME (SEC)      =   9.8000    
       ELAPSED SYSTEM TIME (SEC)    =   0.0000    
       ELAPSED TOTAL CPU TIME (SEC) =   9.8000    
       ELAPSED WALLCLOCK TIME (SEC) =          2
 

 ***WARNING: SOLVER PROBLEM. NUMERICAL SINGULARITY WHEN PROCESSING NODE 
             ASSEMBLY.1 D.O.F. 6 RATIO = 16.8046E+09 .
  
     ASYNCHRONOUS TRACKING ELEMENT LOOP STARTED
  

                  236 SEVERE DISCONTINUITIES OCCURRED DURING THIS ITERATION.
                   88 POINTS CHANGED FROM OPEN TO CLOSED
                  108 POINTS CHANGED FROM CLOSED TO OPEN
                   40 POINTS CHANGED FROM STICKING TO SLIPPING

               CONVERGENCE CHECKS FOR SEVERE DISCONTINUITY ITERATION     6

   MAX. PENETRATION ERROR 347.971E-06   AT NODE BATTERY-1.3126 OF CONTACT PAIR 
   (ASSEMBLY_BATTERY-1_BATTOP,ASSEMBLY_CF-2_CFBOT)
   MAX. CONTACT FORCE ERROR -837.901E-03   AT NODE BATTERY-1.2401 OF CONTACT 
   PAIR (ASSEMBLY_BATTERY-1_BATTOP,ASSEMBLY_CF-2_CFBOT)
          THE ESTIMATED CONTACT FORCE ERROR IS OUTSIDE OF CONVERGENCE TOLERANCES.

 AVERAGE FORCE                      0.216       TIME AVG. FORCE       0.216    
 LARGEST RESIDUAL FORCE            -0.412       AT NODE       3027   DOF  3
   INSTANCE: BATTERY-1                                                                       
 LARGEST INCREMENT OF DISP.         0.752       AT NODE          7   DOF  1
   INSTANCE: CF-1                                                                            
 LARGEST CORRECTION TO DISP.        7.769E-02   AT NODE        167   DOF  1
   INSTANCE: CF-1                                                                            
          FORCE     EQUILIBRIUM NOT ACHIEVED WITHIN TOLERANCE.

 AVERAGE MOMENT                     0.125       TIME AVG. MOMENT      0.125    
 LARGEST RESIDUAL MOMENT            4.368E-03   AT NODE        499   DOF  5
   INSTANCE: CF-2                                                                            
 LARGEST INCREMENT OF ROTATION      7.378E-03   AT NODE        676   DOF  5
   INSTANCE: CF-1                                                                            
 LARGEST CORRECTION TO ROTATION     7.071E-04   AT NODE        214   DOF  6
   INSTANCE: CF-2                                                                            
          MOMENT    EQUILIBRIUM NOT ACHIEVED WITHIN TOLERANCE.

  NUMBER OF EQUATIONS =     29571     NUMBER OF RHS =    1
  NUMBER OF FLOATING PT. OPERATIONS =  7.61E+10

  USING THE DIRECT SOLVER WITH   6 PROCESSORS

     CHECK POINT   START OF SOLVER    

     CHECK POINT  END OF SOLVER       

       ELAPSED USER TIME (SEC)      =   9.1000    
       ELAPSED SYSTEM TIME (SEC)    =   0.0000    
       ELAPSED TOTAL CPU TIME (SEC) =   9.1000    
       ELAPSED WALLCLOCK TIME (SEC) =          2
 

 ***WARNING: SOLVER PROBLEM. NUMERICAL SINGULARITY WHEN PROCESSING NODE 
             ASSEMBLY.1 D.O.F. 6 RATIO = 17.5014E+09 .
  
     ASYNCHRONOUS TRACKING ELEMENT LOOP STARTED
  

                  194 SEVERE DISCONTINUITIES OCCURRED DURING THIS ITERATION.
                   61 POINTS CHANGED FROM OPEN TO CLOSED
                  112 POINTS CHANGED FROM CLOSED TO OPEN
                   21 POINTS CHANGED FROM STICKING TO SLIPPING

               CONVERGENCE CHECKS FOR SEVERE DISCONTINUITY ITERATION     7

   MAX. PENETRATION ERROR 210.280E-06   AT NODE BATTERY-1.2985 OF CONTACT PAIR 
   (ASSEMBLY_BATTERY-1_BATTOP,ASSEMBLY_CF-2_CFBOT)
   MAX. CONTACT FORCE ERROR -603.167E-03   AT NODE BATTERY-1.3082 OF CONTACT 
   PAIR (ASSEMBLY_BATTERY-1_BATTOP,ASSEMBLY_CF-2_CFBOT)
          THE ESTIMATED CONTACT FORCE ERROR IS OUTSIDE OF CONVERGENCE TOLERANCES.

 AVERAGE FORCE                      0.216       TIME AVG. FORCE       0.216    
 LARGEST RESIDUAL FORCE            -0.374       AT NODE       3082   DOF  3
   INSTANCE: BATTERY-1                                                                       
 LARGEST INCREMENT OF DISP.         0.650       AT NODE          7   DOF  1
   INSTANCE: CF-1                                                                            
 LARGEST CORRECTION TO DISP.        0.102       AT NODE         95   DOF  2
   INSTANCE: CF-1                                                                            
          FORCE     EQUILIBRIUM NOT ACHIEVED WITHIN TOLERANCE.

 AVERAGE MOMENT                     0.125       TIME AVG. MOMENT      0.125    
 LARGEST RESIDUAL MOMENT           -5.544E-02   AT NODE          1   DOF  4
   INSTANCE:                                                                                 
 LARGEST INCREMENT OF ROTATION      7.390E-03   AT NODE        676   DOF  5
   INSTANCE: CF-1                                                                            
 LARGEST CORRECTION TO ROTATION    -9.257E-04   AT NODE       1149   DOF  6
   INSTANCE: CF-2                                                                            
          MOMENT    EQUILIBRIUM NOT ACHIEVED WITHIN TOLERANCE.

  NUMBER OF EQUATIONS =     29571     NUMBER OF RHS =    1
  NUMBER OF FLOATING PT. OPERATIONS =  7.43E+10

  USING THE DIRECT SOLVER WITH   6 PROCESSORS

     CHECK POINT   START OF SOLVER    

     CHECK POINT  END OF SOLVER       

       ELAPSED USER TIME (SEC)      =   8.8000    
       ELAPSED SYSTEM TIME (SEC)    =  0.10000    
       ELAPSED TOTAL CPU TIME (SEC) =   8.9000    
       ELAPSED WALLCLOCK TIME (SEC) =          1
 

 ***WARNING: SOLVER PROBLEM. NUMERICAL SINGULARITY WHEN PROCESSING NODE 
             ASSEMBLY.1 D.O.F. 6 RATIO = 18.3021E+09 .
  
     ASYNCHRONOUS TRACKING ELEMENT LOOP STARTED
  

                  172 SEVERE DISCONTINUITIES OCCURRED DURING THIS ITERATION.
                   70 POINTS CHANGED FROM OPEN TO CLOSED
                   84 POINTS CHANGED FROM CLOSED TO OPEN
                   18 POINTS CHANGED FROM STICKING TO SLIPPING

               CONVERGENCE CHECKS FOR SEVERE DISCONTINUITY ITERATION     8

   MAX. PENETRATION ERROR 321.419E-06   AT NODE BATTERY-1.3200 OF CONTACT PAIR 
   (ASSEMBLY_BATTERY-1_BATTOP,ASSEMBLY_CF-2_CFBOT)
   MAX. CONTACT FORCE ERROR -553.393E-03   AT NODE BATTERY-1.3126 OF CONTACT 
   PAIR (ASSEMBLY_BATTERY-1_BATTOP,ASSEMBLY_CF-2_CFBOT)
          THE ESTIMATED CONTACT FORCE ERROR IS OUTSIDE OF CONVERGENCE TOLERANCES.

 AVERAGE FORCE                      0.216       TIME AVG. FORCE       0.216    
 LARGEST RESIDUAL FORCE            -0.342       AT NODE       3126   DOF  3
   INSTANCE: BATTERY-1                                                                       
 LARGEST INCREMENT OF DISP.         0.679       AT NODE          7   DOF  1
   INSTANCE: CF-1                                                                            
 LARGEST CORRECTION TO DISP.        2.812E-02   AT NODE          7   DOF  1
   INSTANCE: CF-1                                                                            
          FORCE     EQUILIBRIUM NOT ACHIEVED WITHIN TOLERANCE.

 AVERAGE MOMENT                     0.125       TIME AVG. MOMENT      0.125    
 LARGEST RESIDUAL MOMENT            8.164E-04   AT NODE        422   DOF  5
   INSTANCE: CF-2                                                                            
 LARGEST INCREMENT OF ROTATION      7.403E-03   AT NODE        676   DOF  5
   INSTANCE: CF-1                                                                            
 LARGEST CORRECTION TO ROTATION     4.368E-04   AT NODE        455   DOF  5
   INSTANCE: CF-2                                                                            
          MOMENT    EQUILIBRIUM NOT ACHIEVED WITHIN TOLERANCE.

  NUMBER OF EQUATIONS =     29571     NUMBER OF RHS =    1
  NUMBER OF FLOATING PT. OPERATIONS =  7.37E+10

  USING THE DIRECT SOLVER WITH   6 PROCESSORS

     CHECK POINT   START OF SOLVER    

     CHECK POINT  END OF SOLVER       

       ELAPSED USER TIME (SEC)      =   8.7000    
       ELAPSED SYSTEM TIME (SEC)    =   0.0000    
       ELAPSED TOTAL CPU TIME (SEC) =   8.7000    
       ELAPSED WALLCLOCK TIME (SEC) =          2
 

 ***WARNING: SOLVER PROBLEM. NUMERICAL SINGULARITY WHEN PROCESSING NODE 
             ASSEMBLY.1 D.O.F. 6 RATIO = 18.9482E+09 .
  
     ASYNCHRONOUS TRACKING ELEMENT LOOP STARTED
  

                  104 SEVERE DISCONTINUITIES OCCURRED DURING THIS ITERATION.
                   21 POINTS CHANGED FROM OPEN TO CLOSED
                   75 POINTS CHANGED FROM CLOSED TO OPEN
                    8 POINTS CHANGED FROM STICKING TO SLIPPING

               CONVERGENCE CHECKS FOR SEVERE DISCONTINUITY ITERATION     9

   MAX. PENETRATION ERROR 130.254E-06   AT NODE BATTERY-1.3030 OF CONTACT PAIR 
   (ASSEMBLY_BATTERY-1_BATTOP,ASSEMBLY_CF-2_CFBOT)
   MAX. CONTACT FORCE ERROR -435.501E-03   AT NODE BATTERY-1.3131 OF CONTACT 
   PAIR (ASSEMBLY_BATTERY-1_BATTOP,ASSEMBLY_CF-2_CFBOT)
          THE ESTIMATED CONTACT FORCE ERROR IS OUTSIDE OF CONVERGENCE TOLERANCES.

 AVERAGE FORCE                      0.216       TIME AVG. FORCE       0.216    
 LARGEST RESIDUAL FORCE             0.298       AT NODE        416   DOF  3
   INSTANCE: CF-2                                                                            
 LARGEST INCREMENT OF DISP.         0.637       AT NODE          7   DOF  1
   INSTANCE: CF-1                                                                            
 LARGEST CORRECTION TO DISP.        4.126E-02   AT NODE         95   DOF  2
   INSTANCE: CF-1                                                                            
          FORCE     EQUILIBRIUM NOT ACHIEVED WITHIN TOLERANCE.

 AVERAGE MOMENT                     0.126       TIME AVG. MOMENT      0.126    
 LARGEST RESIDUAL MOMENT            3.069E-03   AT NODE        422   DOF  5
   INSTANCE: CF-2                                                                            
 LARGEST INCREMENT OF ROTATION      7.412E-03   AT NODE        676   DOF  5
   INSTANCE: CF-1                                                                            
 LARGEST CORRECTION TO ROTATION    -3.760E-04   AT NODE        217   DOF  6
   INSTANCE: CF-2                                                                            
          MOMENT    EQUILIBRIUM NOT ACHIEVED WITHIN TOLERANCE.

  NUMBER OF EQUATIONS =     29571     NUMBER OF RHS =    1
  NUMBER OF FLOATING PT. OPERATIONS =  7.26E+10

  USING THE DIRECT SOLVER WITH   6 PROCESSORS

     CHECK POINT   START OF SOLVER    

     CHECK POINT  END OF SOLVER       

       ELAPSED USER TIME (SEC)      =   8.7000    
       ELAPSED SYSTEM TIME (SEC)    =   0.0000    
       ELAPSED TOTAL CPU TIME (SEC) =   8.7000    
       ELAPSED WALLCLOCK TIME (SEC) =          1
 

 ***WARNING: SOLVER PROBLEM. NUMERICAL SINGULARITY WHEN PROCESSING NODE 
             ASSEMBLY.1 D.O.F. 6 RATIO = 19.6212E+09 .
  
     ASYNCHRONOUS TRACKING ELEMENT LOOP STARTED
  

                   86 SEVERE DISCONTINUITIES OCCURRED DURING THIS ITERATION.
                   25 POINTS CHANGED FROM OPEN TO CLOSED
                   56 POINTS CHANGED FROM CLOSED TO OPEN
                    5 POINTS CHANGED FROM STICKING TO SLIPPING

               CONVERGENCE CHECKS FOR SEVERE DISCONTINUITY ITERATION    10

   MAX. PENETRATION ERROR 238.712E-06   AT NODE BATTERY-1.3204 OF CONTACT PAIR 
   (ASSEMBLY_BATTERY-1_BATTOP,ASSEMBLY_CF-2_CFBOT)
   MAX. CONTACT FORCE ERROR -413.491E-03   AT NODE BATTERY-1.3208 OF CONTACT 
   PAIR (ASSEMBLY_BATTERY-1_BATTOP,ASSEMBLY_CF-2_CFBOT)
          THE ESTIMATED CONTACT FORCE ERROR IS OUTSIDE OF CONVERGENCE TOLERANCES.

 AVERAGE FORCE                      0.215       TIME AVG. FORCE       0.215    
 LARGEST RESIDUAL FORCE             0.276       AT NODE        380   DOF  3
   INSTANCE: CF-2                                                                            
 LARGEST INCREMENT OF DISP.         0.676       AT NODE          7   DOF  1
   INSTANCE: CF-1                                                                            
 LARGEST CORRECTION TO DISP.        3.828E-02   AT NODE          7   DOF  1
   INSTANCE: CF-1                                                                            
          FORCE     EQUILIBRIUM NOT ACHIEVED WITHIN TOLERANCE.

 AVERAGE MOMENT                     0.126       TIME AVG. MOMENT      0.126    
 LARGEST RESIDUAL MOMENT            9.099E-04   AT NODE        428   DOF  5
   INSTANCE: CF-2                                                                            
 LARGEST INCREMENT OF ROTATION      7.418E-03   AT NODE        676   DOF  5
   INSTANCE: CF-1                                                                            
 LARGEST CORRECTION TO ROTATION     3.485E-04   AT NODE        375   DOF  6
   INSTANCE: CF-2                                                                            
          MOMENT    EQUILIBRIUM NOT ACHIEVED WITHIN TOLERANCE.

  NUMBER OF EQUATIONS =     29571     NUMBER OF RHS =    1
  NUMBER OF FLOATING PT. OPERATIONS =  7.18E+10

  USING THE DIRECT SOLVER WITH   6 PROCESSORS

     CHECK POINT   START OF SOLVER    

     CHECK POINT  END OF SOLVER       

       ELAPSED USER TIME (SEC)      =   8.9000    
       ELAPSED SYSTEM TIME (SEC)    =   0.0000    
       ELAPSED TOTAL CPU TIME (SEC) =   8.9000    
       ELAPSED WALLCLOCK TIME (SEC) =          2
 

 ***WARNING: SOLVER PROBLEM. NUMERICAL SINGULARITY WHEN PROCESSING NODE 
             ASSEMBLY.1 D.O.F. 6 RATIO = 20.2080E+09 .
  
     ASYNCHRONOUS TRACKING ELEMENT LOOP STARTED
  

                   65 SEVERE DISCONTINUITIES OCCURRED DURING THIS ITERATION.
                   19 POINTS CHANGED FROM OPEN TO CLOSED
                   44 POINTS CHANGED FROM CLOSED TO OPEN
                    2 POINTS CHANGED FROM STICKING TO SLIPPING

               CONVERGENCE CHECKS FOR SEVERE DISCONTINUITY ITERATION    11

   MAX. PENETRATION ERROR 86.6252E-06  AT NODE BATTERY-1.2981 OF CONTACT PAIR 
   (ASSEMBLY_BATTERY-1_BATTOP,ASSEMBLY_CF-2_CFBOT)
   MAX. CONTACT FORCE ERROR -417.250E-03   AT NODE BATTERY-1.3222 OF CONTACT 
   PAIR (ASSEMBLY_BATTERY-1_BATTOP,ASSEMBLY_CF-2_CFBOT)
          THE ESTIMATED CONTACT FORCE ERROR IS OUTSIDE OF CONVERGENCE TOLERANCES.

 AVERAGE FORCE                      0.215       TIME AVG. FORCE       0.215    
 LARGEST RESIDUAL FORCE             0.258       AT NODE        340   DOF  3
   INSTANCE: CF-2                                                                            
 LARGEST INCREMENT OF DISP.         0.636       AT NODE          7   DOF  1
   INSTANCE: CF-1                                                                            
 LARGEST CORRECTION TO DISP.        3.998E-02   AT NODE         94   DOF  2
   INSTANCE: CF-1                                                                            
          FORCE     EQUILIBRIUM NOT ACHIEVED WITHIN TOLERANCE.

 AVERAGE MOMENT                     0.126       TIME AVG. MOMENT      0.126    
 LARGEST RESIDUAL MOMENT            1.031E-03   AT NODE          1   DOF  4
   INSTANCE:                                                                                 
 LARGEST INCREMENT OF ROTATION      7.423E-03   AT NODE        676   DOF  5
   INSTANCE: CF-1                                                                            
 LARGEST CORRECTION TO ROTATION    -3.639E-04   AT NODE        217   DOF  6
   INSTANCE: CF-2                                                                            
          MOMENT    EQUILIBRIUM NOT ACHIEVED WITHIN TOLERANCE.

  NUMBER OF EQUATIONS =     29571     NUMBER OF RHS =    1
  NUMBER OF FLOATING PT. OPERATIONS =  7.15E+10

  USING THE DIRECT SOLVER WITH   6 PROCESSORS

     CHECK POINT   START OF SOLVER    

     CHECK POINT  END OF SOLVER       

       ELAPSED USER TIME (SEC)      =   8.4000    
       ELAPSED SYSTEM TIME (SEC)    =   0.0000    
       ELAPSED TOTAL CPU TIME (SEC) =   8.4000    
       ELAPSED WALLCLOCK TIME (SEC) =          1
 

 ***WARNING: SOLVER PROBLEM. NUMERICAL SINGULARITY WHEN PROCESSING NODE 
             ASSEMBLY.1 D.O.F. 6 RATIO = 20.6232E+09 .
  
     ASYNCHRONOUS TRACKING ELEMENT LOOP STARTED
  

                   59 SEVERE DISCONTINUITIES OCCURRED DURING THIS ITERATION.
                   17 POINTS CHANGED FROM OPEN TO CLOSED
                   42 POINTS CHANGED FROM CLOSED TO OPEN

               CONVERGENCE CHECKS FOR SEVERE DISCONTINUITY ITERATION    12

   MAX. PENETRATION ERROR 161.628E-06   AT NODE BATTERY-1.3278 OF CONTACT PAIR 
   (ASSEMBLY_BATTERY-1_BATTOP,ASSEMBLY_CF-2_CFBOT)
   MAX. CONTACT FORCE ERROR -429.912E-03   AT NODE BATTERY-1.3221 OF CONTACT 
   PAIR (ASSEMBLY_BATTERY-1_BATTOP,ASSEMBLY_CF-2_CFBOT)
          THE ESTIMATED CONTACT FORCE ERROR IS OUTSIDE OF CONVERGENCE TOLERANCES.

 AVERAGE FORCE                      0.215       TIME AVG. FORCE       0.215    
 LARGEST RESIDUAL FORCE            -0.250       AT NODE       3221   DOF  3
   INSTANCE: BATTERY-1                                                                       
 LARGEST INCREMENT OF DISP.         0.676       AT NODE          7   DOF  1
   INSTANCE: CF-1                                                                            
 LARGEST CORRECTION TO DISP.        4.036E-02   AT NODE        101   DOF  1
   INSTANCE: CF-2                                                                            
          FORCE     EQUILIBRIUM NOT ACHIEVED WITHIN TOLERANCE.

 AVERAGE MOMENT                     0.126       TIME AVG. MOMENT      0.126    
 LARGEST RESIDUAL MOMENT           -1.875E-03   AT NODE          1   DOF  4
   INSTANCE:                                                                                 
 LARGEST INCREMENT OF ROTATION      7.427E-03   AT NODE        676   DOF  5
   INSTANCE: CF-1                                                                            
 LARGEST CORRECTION TO ROTATION     3.677E-04   AT NODE       1025   DOF  6
   INSTANCE: CF-2                                                                            
          MOMENT    EQUILIBRIUM NOT ACHIEVED WITHIN TOLERANCE.

  NUMBER OF EQUATIONS =     29571     NUMBER OF RHS =    1
  NUMBER OF FLOATING PT. OPERATIONS =  7.13E+10

  USING THE DIRECT SOLVER WITH   6 PROCESSORS

     CHECK POINT   START OF SOLVER    

     CHECK POINT  END OF SOLVER       

       ELAPSED USER TIME (SEC)      =   8.5000    
       ELAPSED SYSTEM TIME (SEC)    =   0.0000    
       ELAPSED TOTAL CPU TIME (SEC) =   8.5000    
       ELAPSED WALLCLOCK TIME (SEC) =          1
 

 ***WARNING: SOLVER PROBLEM. NUMERICAL SINGULARITY WHEN PROCESSING NODE 
             ASSEMBLY.1 D.O.F. 6 RATIO = 21.0806E+09 .
  
     ASYNCHRONOUS TRACKING ELEMENT LOOP STARTED
  

                   44 SEVERE DISCONTINUITIES OCCURRED DURING THIS ITERATION.
                   13 POINTS CHANGED FROM OPEN TO CLOSED
                   31 POINTS CHANGED FROM CLOSED TO OPEN

               CONVERGENCE CHECKS FOR SEVERE DISCONTINUITY ITERATION    13

   MAX. PENETRATION ERROR 84.9255E-06  AT NODE BATTERY-1.3232 OF CONTACT PAIR 
   (ASSEMBLY_BATTERY-1_BATTOP,ASSEMBLY_CF-2_CFBOT)
   MAX. CONTACT FORCE ERROR -395.406E-03   AT NODE BATTERY-1.3164 OF CONTACT 
   PAIR (ASSEMBLY_BATTERY-1_BATTOP,ASSEMBLY_CF-2_CFBOT)
          THE ESTIMATED CONTACT FORCE ERROR IS OUTSIDE OF CONVERGENCE TOLERANCES.

 AVERAGE FORCE                      0.215       TIME AVG. FORCE       0.215    
 LARGEST RESIDUAL FORCE            -0.248       AT NODE       3164   DOF  3
   INSTANCE: BATTERY-1                                                                       
 LARGEST INCREMENT OF DISP.         0.632       AT NODE          7   DOF  1
   INSTANCE: CF-1                                                                            
 LARGEST CORRECTION TO DISP.        4.386E-02   AT NODE         94   DOF  2
   INSTANCE: CF-1                                                                            
          FORCE     EQUILIBRIUM NOT ACHIEVED WITHIN TOLERANCE.

 AVERAGE MOMENT                     0.126       TIME AVG. MOMENT      0.126    
 LARGEST RESIDUAL MOMENT           -1.016E-02   AT NODE          1   DOF  4
   INSTANCE:                                                                                 
 LARGEST INCREMENT OF ROTATION      7.431E-03   AT NODE        676   DOF  5
   INSTANCE: CF-1                                                                            
 LARGEST CORRECTION TO ROTATION    -3.991E-04   AT NODE        955   DOF  6
   INSTANCE: CF-2                                                                            
          MOMENT    EQUILIBRIUM NOT ACHIEVED WITHIN TOLERANCE.

  NUMBER OF EQUATIONS =     29571     NUMBER OF RHS =    1
  NUMBER OF FLOATING PT. OPERATIONS =  7.06E+10

  USING THE DIRECT SOLVER WITH   6 PROCESSORS

     CHECK POINT   START OF SOLVER    

     CHECK POINT  END OF SOLVER       

       ELAPSED USER TIME (SEC)      =   8.3000    
       ELAPSED SYSTEM TIME (SEC)    =  0.10000    
       ELAPSED TOTAL CPU TIME (SEC) =   8.4000    
       ELAPSED WALLCLOCK TIME (SEC) =          2
 

 ***WARNING: SOLVER PROBLEM. NUMERICAL SINGULARITY WHEN PROCESSING NODE 
             ASSEMBLY.1 D.O.F. 6 RATIO = 21.5240E+09 .
  
     ASYNCHRONOUS TRACKING ELEMENT LOOP STARTED
  

                   23 SEVERE DISCONTINUITIES OCCURRED DURING THIS ITERATION.
                    5 POINTS CHANGED FROM OPEN TO CLOSED
                   18 POINTS CHANGED FROM CLOSED TO OPEN

               CONVERGENCE CHECKS FOR SEVERE DISCONTINUITY ITERATION    14

   MAX. PENETRATION ERROR 38.9601E-06  AT NODE BATTERY-1.636 OF CONTACT PAIR 
   (ASSEMBLY_BATTERY-1_BATBOT,ASSEMBLY_CF-1_CFTOP)
   MAX. CONTACT FORCE ERROR -357.106E-03   AT NODE BATTERY-1.3197 OF CONTACT 
   PAIR (ASSEMBLY_BATTERY-1_BATTOP,ASSEMBLY_CF-2_CFBOT)
          THE ESTIMATED CONTACT FORCE ERROR IS OUTSIDE OF CONVERGENCE TOLERANCES.

 AVERAGE FORCE                      0.215       TIME AVG. FORCE       0.215    
 LARGEST RESIDUAL FORCE            -0.232       AT NODE       3197   DOF  3
   INSTANCE: BATTERY-1                                                                       
 LARGEST INCREMENT OF DISP.         0.663       AT NODE          7   DOF  1
   INSTANCE: CF-1                                                                            
 LARGEST CORRECTION TO DISP.        3.050E-02   AT NODE        101   DOF  1
   INSTANCE: CF-2                                                                            
          FORCE     EQUILIBRIUM NOT ACHIEVED WITHIN TOLERANCE.

 AVERAGE MOMENT                     0.125       TIME AVG. MOMENT      0.125    
 LARGEST RESIDUAL MOMENT           -9.150E-03   AT NODE          1   DOF  4
   INSTANCE:                                                                                 
 LARGEST INCREMENT OF ROTATION      7.432E-03   AT NODE        676   DOF  5
   INSTANCE: CF-1                                                                            
 LARGEST CORRECTION TO ROTATION    -2.859E-04   AT NODE        954   DOF  5
   INSTANCE: CF-2                                                                            
          MOMENT    EQUILIBRIUM NOT ACHIEVED WITHIN TOLERANCE.

  NUMBER OF EQUATIONS =     29571     NUMBER OF RHS =    1
  NUMBER OF FLOATING PT. OPERATIONS =  7.02E+10

  USING THE DIRECT SOLVER WITH   6 PROCESSORS

     CHECK POINT   START OF SOLVER    

     CHECK POINT  END OF SOLVER       

       ELAPSED USER TIME (SEC)      =   8.5000    
       ELAPSED SYSTEM TIME (SEC)    =  0.10000    
       ELAPSED TOTAL CPU TIME (SEC) =   8.6000    
       ELAPSED WALLCLOCK TIME (SEC) =          1
 

 ***WARNING: SOLVER PROBLEM. NUMERICAL SINGULARITY WHEN PROCESSING NODE 
             ASSEMBLY.1 D.O.F. 6 RATIO = 21.8239E+09 .
  
     ASYNCHRONOUS TRACKING ELEMENT LOOP STARTED
  

                   20 SEVERE DISCONTINUITIES OCCURRED DURING THIS ITERATION.
                    3 POINTS CHANGED FROM OPEN TO CLOSED
                   17 POINTS CHANGED FROM CLOSED TO OPEN

               CONVERGENCE CHECKS FOR SEVERE DISCONTINUITY ITERATION    15

   MAX. PENETRATION ERROR 14.5712E-06  AT NODE BATTERY-1.3230 OF CONTACT PAIR 
   (ASSEMBLY_BATTERY-1_BATTOP,ASSEMBLY_CF-2_CFBOT)
   MAX. CONTACT FORCE ERROR -161.409E-03   AT NODE BATTERY-1.3297 OF CONTACT 
   PAIR (ASSEMBLY_BATTERY-1_BATTOP,ASSEMBLY_CF-2_CFBOT)
          THE CONTACT CONSTRAINT ERRORS ARE WITHIN THE TOLERANCES.

 AVERAGE FORCE                      0.215       TIME AVG. FORCE       0.215    
 LARGEST RESIDUAL FORCE             9.739E-02   AT NODE        919   DOF  3
   INSTANCE: CF-2                                                                            
 LARGEST INCREMENT OF DISP.         0.630       AT NODE          7   DOF  1
   INSTANCE: CF-1                                                                            
 LARGEST CORRECTION TO DISP.        3.231E-02   AT NODE         93   DOF  2
   INSTANCE: CF-1                                                                            
          FORCE     EQUILIBRIUM NOT ACHIEVED WITHIN TOLERANCE.

 AVERAGE MOMENT                     0.125       TIME AVG. MOMENT      0.125    
 LARGEST RESIDUAL MOMENT           -3.331E-03   AT NODE          1   DOF  4
   INSTANCE:                                                                                 
 LARGEST INCREMENT OF ROTATION      7.433E-03   AT NODE        676   DOF  5
   INSTANCE: CF-1                                                                            
 LARGEST CORRECTION TO ROTATION    -2.943E-04   AT NODE        953   DOF  6
   INSTANCE: CF-2                                                                            
          MOMENT    EQUILIBRIUM NOT ACHIEVED WITHIN TOLERANCE.

  NUMBER OF EQUATIONS =     29571     NUMBER OF RHS =    1
  NUMBER OF FLOATING PT. OPERATIONS =  6.98E+10

  USING THE DIRECT SOLVER WITH   6 PROCESSORS

     CHECK POINT   START OF SOLVER    

     CHECK POINT  END OF SOLVER       

       ELAPSED USER TIME (SEC)      =   8.2000    
       ELAPSED SYSTEM TIME (SEC)    =  0.10000    
       ELAPSED TOTAL CPU TIME (SEC) =   8.3000    
       ELAPSED WALLCLOCK TIME (SEC) =          1
 

 ***WARNING: SOLVER PROBLEM. NUMERICAL SINGULARITY WHEN PROCESSING NODE 
             ASSEMBLY.1 D.O.F. 6 RATIO = 22.0379E+09 .
  
     ASYNCHRONOUS TRACKING ELEMENT LOOP STARTED
  

                    8 SEVERE DISCONTINUITIES OCCURRED DURING THIS ITERATION.
                    4 POINTS CHANGED FROM OPEN TO CLOSED
                    4 POINTS CHANGED FROM CLOSED TO OPEN

               CONVERGENCE CHECKS FOR SEVERE DISCONTINUITY ITERATION    16

   MAX. PENETRATION ERROR 17.7317E-06  AT NODE BATTERY-1.619 OF CONTACT PAIR 
   (ASSEMBLY_BATTERY-1_BATBOT,ASSEMBLY_CF-1_CFTOP)
   MAX. CONTACT FORCE ERROR -72.4064E-03  AT NODE BATTERY-1.1169 OF CONTACT 
   PAIR (ASSEMBLY_BATTERY-1_BATBOT,ASSEMBLY_CF-1_CFTOP)
          THE CONTACT CONSTRAINT ERRORS ARE WITHIN THE TOLERANCES.

 AVERAGE FORCE                      0.215       TIME AVG. FORCE       0.215    
 LARGEST RESIDUAL FORCE             4.075E-02   AT NODE       1169   DOF  3
   INSTANCE: BATTERY-1                                                                       
 LARGEST INCREMENT OF DISP.         0.654       AT NODE          7   DOF  1
   INSTANCE: CF-1                                                                            
 LARGEST CORRECTION TO DISP.        2.386E-02   AT NODE          1   DOF  1
   INSTANCE: CF-2                                                                            
          FORCE     EQUILIBRIUM NOT ACHIEVED WITHIN TOLERANCE.

 AVERAGE MOMENT                     0.125       TIME AVG. MOMENT      0.125    
 LARGEST RESIDUAL MOMENT            2.023E-03   AT NODE          1   DOF  4
   INSTANCE:                                                                                 
 LARGEST INCREMENT OF ROTATION      7.433E-03   AT NODE        676   DOF  5
   INSTANCE: CF-1                                                                            
 LARGEST CORRECTION TO ROTATION     2.172E-04   AT NODE        920   DOF  6
   INSTANCE: CF-2                                                                            
          MOMENT    EQUILIBRIUM NOT ACHIEVED WITHIN TOLERANCE.

  NUMBER OF EQUATIONS =     29571     NUMBER OF RHS =    1
  NUMBER OF FLOATING PT. OPERATIONS =  6.97E+10

  USING THE DIRECT SOLVER WITH   6 PROCESSORS

     CHECK POINT   START OF SOLVER    

     CHECK POINT  END OF SOLVER       

       ELAPSED USER TIME (SEC)      =   8.5000    
       ELAPSED SYSTEM TIME (SEC)    =   0.0000    
       ELAPSED TOTAL CPU TIME (SEC) =   8.5000    
       ELAPSED WALLCLOCK TIME (SEC) =          2
 

 ***WARNING: SOLVER PROBLEM. NUMERICAL SINGULARITY WHEN PROCESSING NODE 
             ASSEMBLY.1 D.O.F. 6 RATIO = 22.1070E+09 .
  
     ASYNCHRONOUS TRACKING ELEMENT LOOP STARTED
  

                    5 SEVERE DISCONTINUITIES OCCURRED DURING THIS ITERATION.
                    2 POINTS CHANGED FROM OPEN TO CLOSED
                    3 POINTS CHANGED FROM CLOSED TO OPEN

               CONVERGENCE CHECKS FOR SEVERE DISCONTINUITY ITERATION    17

   MAX. PENETRATION ERROR 21.2743E-06  AT NODE BATTERY-1.1172 OF CONTACT PAIR 
   (ASSEMBLY_BATTERY-1_BATBOT,ASSEMBLY_CF-1_CFTOP)
   MAX. CONTACT FORCE ERROR 26.3788E-03  AT NODE BATTERY-1.1172 OF CONTACT PAIR 
   (ASSEMBLY_BATTERY-1_BATBOT,ASSEMBLY_CF-1_CFTOP)
          THE CONTACT CONSTRAINT ERRORS ARE WITHIN THE TOLERANCES.

 AVERAGE FORCE                      0.215       TIME AVG. FORCE       0.215    
 LARGEST RESIDUAL FORCE             1.024E-02   AT NODE        679   DOF  3
   INSTANCE: BATTERY-1                                                                       
 LARGEST INCREMENT OF DISP.         0.633       AT NODE          7   DOF  1
   INSTANCE: CF-1                                                                            
 LARGEST CORRECTION TO DISP.       -2.141E-02   AT NODE         98   DOF  1
   INSTANCE: CF-1                                                                            
          FORCE     EQUILIBRIUM NOT ACHIEVED WITHIN TOLERANCE.

 AVERAGE MOMENT                     0.125       TIME AVG. MOMENT      0.125    
 LARGEST RESIDUAL MOMENT            1.822E-04   AT NODE          1   DOF  6
   INSTANCE:                                                                                 
 LARGEST INCREMENT OF ROTATION      7.433E-03   AT NODE        676   DOF  5
   INSTANCE: CF-1                                                                            
 LARGEST CORRECTION TO ROTATION    -1.947E-04   AT NODE         18   DOF  6
   INSTANCE: CF-1                                                                            
 ESTIMATE OF ROTATION CORRECTION   -1.754E-05
 MOMENT    EQUILIB. ACCEPTED BASED ON SMALL RESIDUAL AND ESTIMATED CORRECTION

  NUMBER OF EQUATIONS =     29571     NUMBER OF RHS =    1
  NUMBER OF FLOATING PT. OPERATIONS =  6.94E+10

  USING THE DIRECT SOLVER WITH   6 PROCESSORS

     CHECK POINT   START OF SOLVER    

     CHECK POINT  END OF SOLVER       

       ELAPSED USER TIME (SEC)      =   8.4000    
       ELAPSED SYSTEM TIME (SEC)    =  0.10000    
       ELAPSED TOTAL CPU TIME (SEC) =   8.5000    
       ELAPSED WALLCLOCK TIME (SEC) =          1
 

 ***WARNING: SOLVER PROBLEM. NUMERICAL SINGULARITY WHEN PROCESSING NODE 
             ASSEMBLY.1 D.O.F. 6 RATIO = 22.1106E+09 .
  
     ASYNCHRONOUS TRACKING ELEMENT LOOP STARTED
  

                    1 SEVERE DISCONTINUITIES OCCURRED DURING THIS ITERATION.
                    1 POINTS CHANGED FROM CLOSED TO OPEN

               CONVERGENCE CHECKS FOR SEVERE DISCONTINUITY ITERATION    18

   MAX. PENETRATION ERROR -33.7613E-12  AT NODE BATTERY-1.682 OF CONTACT PAIR 
   (ASSEMBLY_BATTERY-1_BATBOT,ASSEMBLY_CF-1_CFTOP)
   MAX. CONTACT FORCE ERROR -2.56976E-03 AT NODE BATTERY-1.619 OF CONTACT PAIR 
   (ASSEMBLY_BATTERY-1_BATBOT,ASSEMBLY_CF-1_CFTOP)
          THE CONTACT CONSTRAINT ERRORS ARE WITHIN THE TOLERANCES.

 AVERAGE FORCE                      0.215       TIME AVG. FORCE       0.215    
 LARGEST RESIDUAL FORCE             1.466E-03   AT NODE        619   DOF  3
   INSTANCE: BATTERY-1                                                                       
 LARGEST INCREMENT OF DISP.         0.653       AT NODE          7   DOF  1
   INSTANCE: CF-1                                                                            
 LARGEST CORRECTION TO DISP.        2.028E-02   AT NODE        169   DOF  1
   INSTANCE: CF-1                                                                            
          FORCE     EQUILIBRIUM NOT ACHIEVED WITHIN TOLERANCE.

 AVERAGE MOMENT                     0.125       TIME AVG. MOMENT      0.125    
 LARGEST RESIDUAL MOMENT            1.017E-04   AT NODE          1   DOF  4
   INSTANCE:                                                                                 
 LARGEST INCREMENT OF ROTATION      7.433E-03   AT NODE        676   DOF  5
   INSTANCE: CF-1                                                                            
 LARGEST CORRECTION TO ROTATION     1.844E-04   AT NODE        898   DOF  6
   INSTANCE: CF-1                                                                            
          ROTATION CORRECTION TOO LARGE COMPARED TO ROTATION INCREMENT

  NUMBER OF EQUATIONS =     29571     NUMBER OF RHS =    1
  NUMBER OF FLOATING PT. OPERATIONS =  6.90E+10

  USING THE DIRECT SOLVER WITH   6 PROCESSORS

     CHECK POINT   START OF SOLVER    

     CHECK POINT  END OF SOLVER       

       ELAPSED USER TIME (SEC)      =   8.3000    
       ELAPSED SYSTEM TIME (SEC)    =  0.10000    
       ELAPSED TOTAL CPU TIME (SEC) =   8.4000    
       ELAPSED WALLCLOCK TIME (SEC) =          1
 

 ***WARNING: SOLVER PROBLEM. NUMERICAL SINGULARITY WHEN PROCESSING NODE 
             ASSEMBLY.1 D.O.F. 6 RATIO = 22.1127E+09 .
  
     ASYNCHRONOUS TRACKING ELEMENT LOOP STARTED
  

               CONVERGENCE CHECKS FOR EQUILIBRIUM ITERATION     1

   MAX. PENETRATION ERROR -9.15595E-12 AT NODE BATTERY-1.271 OF CONTACT PAIR 
   (ASSEMBLY_BATTERY-1_BATBOT,ASSEMBLY_CF-1_CFTOP)
   MAX. CONTACT FORCE ERROR -11.6060E-09  AT NODE BATTERY-1.271 OF CONTACT PAIR 
   (ASSEMBLY_BATTERY-1_BATBOT,ASSEMBLY_CF-1_CFTOP)
          THE CONTACT CONSTRAINTS HAVE CONVERGED.

 AVERAGE FORCE                      0.215       TIME AVG. FORCE       0.215    
 LARGEST RESIDUAL FORCE             1.287E-05   AT NODE          1   DOF  2
   INSTANCE:                                                                                 
 LARGEST INCREMENT OF DISP.         0.634       AT NODE          7   DOF  1
   INSTANCE: CF-1                                                                            
 LARGEST CORRECTION TO DISP.       -1.911E-02   AT NODE        114   DOF  1
   INSTANCE: CF-2                                                                            
 ESTIMATE OF DISP.    CORRECTION    9.569E-05
 FORCE     EQUILIB. ACCEPTED BASED ON SMALL RESIDUAL AND ESTIMATED CORRECTION

 AVERAGE MOMENT                     0.125       TIME AVG. MOMENT      0.125    
 LARGEST RESIDUAL MOMENT           -9.099E-05   AT NODE          1   DOF  4
   INSTANCE:                                                                                 
 LARGEST INCREMENT OF ROTATION      7.433E-03   AT NODE        676   DOF  5
   INSTANCE: CF-1                                                                            
 LARGEST CORRECTION TO ROTATION    -1.737E-04   AT NODE         45   DOF  6
   INSTANCE: CF-2                                                                            
          ROTATION CORRECTION TOO LARGE COMPARED TO ROTATION INCREMENT

  NUMBER OF EQUATIONS =     29571     NUMBER OF RHS =    1
  NUMBER OF FLOATING PT. OPERATIONS =  6.90E+10

  USING THE DIRECT SOLVER WITH   6 PROCESSORS

     CHECK POINT   START OF SOLVER    

     CHECK POINT  END OF SOLVER       

       ELAPSED USER TIME (SEC)      =   8.1000    
       ELAPSED SYSTEM TIME (SEC)    =  0.10000    
       ELAPSED TOTAL CPU TIME (SEC) =   8.2000    
       ELAPSED WALLCLOCK TIME (SEC) =          2
 

 ***WARNING: SOLVER PROBLEM. NUMERICAL SINGULARITY WHEN PROCESSING NODE 
             ASSEMBLY.1 D.O.F. 6 RATIO = 22.1152E+09 .
  
     ASYNCHRONOUS TRACKING ELEMENT LOOP STARTED
  

               CONVERGENCE CHECKS FOR EQUILIBRIUM ITERATION     2

   MAX. PENETRATION ERROR 7.86564E-12 AT NODE BATTERY-1.5 OF CONTACT PAIR 
   (ASSEMBLY_BATTERY-1_BATBOT,ASSEMBLY_CF-1_CFTOP)
   MAX. CONTACT FORCE ERROR -10.3415E-09  AT NODE BATTERY-1.2548 OF CONTACT 
   PAIR (ASSEMBLY_BATTERY-1_BATTOP,ASSEMBLY_CF-2_CFBOT)
          THE CONTACT CONSTRAINTS HAVE CONVERGED.

 AVERAGE FORCE                      0.215       TIME AVG. FORCE       0.215    
 LARGEST RESIDUAL FORCE            -1.212E-05   AT NODE          1   DOF  2
   INSTANCE:                                                                                 
 LARGEST INCREMENT OF DISP.         0.652       AT NODE          7   DOF  1
   INSTANCE: CF-1                                                                            
 LARGEST CORRECTION TO DISP.        1.798E-02   AT NODE        114   DOF  1
   INSTANCE: CF-2                                                                            
          DISP.    CORRECTION TOO LARGE COMPARED TO DISP.    INCREMENT

 AVERAGE MOMENT                     0.125       TIME AVG. MOMENT      0.125    
 LARGEST RESIDUAL MOMENT            8.853E-05   AT NODE          1   DOF  4
   INSTANCE:                                                                                 
 LARGEST INCREMENT OF ROTATION      7.433E-03   AT NODE        676   DOF  5
   INSTANCE: CF-1                                                                            
 LARGEST CORRECTION TO ROTATION     1.635E-04   AT NODE         45   DOF  6
   INSTANCE: CF-2                                                                            
          ROTATION CORRECTION TOO LARGE COMPARED TO ROTATION INCREMENT

  NUMBER OF EQUATIONS =     29571     NUMBER OF RHS =    1
  NUMBER OF FLOATING PT. OPERATIONS =  6.90E+10

  USING THE DIRECT SOLVER WITH   6 PROCESSORS

     CHECK POINT   START OF SOLVER    

     CHECK POINT  END OF SOLVER       

       ELAPSED USER TIME (SEC)      =   8.0000    
       ELAPSED SYSTEM TIME (SEC)    =  0.10000    
       ELAPSED TOTAL CPU TIME (SEC) =   8.1000    
       ELAPSED WALLCLOCK TIME (SEC) =          2
 

 ***WARNING: SOLVER PROBLEM. NUMERICAL SINGULARITY WHEN PROCESSING NODE 
             ASSEMBLY.1 D.O.F. 6 RATIO = 22.1103E+09 .
  
     ASYNCHRONOUS TRACKING ELEMENT LOOP STARTED
  

               CONVERGENCE CHECKS FOR EQUILIBRIUM ITERATION     3

   MAX. PENETRATION ERROR -8.06554E-12 AT NODE BATTERY-1.271 OF CONTACT PAIR 
   (ASSEMBLY_BATTERY-1_BATBOT,ASSEMBLY_CF-1_CFTOP)
   MAX. CONTACT FORCE ERROR -10.2238E-09  AT NODE BATTERY-1.271 OF CONTACT PAIR 
   (ASSEMBLY_BATTERY-1_BATBOT,ASSEMBLY_CF-1_CFTOP)
          THE CONTACT CONSTRAINTS HAVE CONVERGED.

 AVERAGE FORCE                      0.215       TIME AVG. FORCE       0.215    
 LARGEST RESIDUAL FORCE             1.140E-05   AT NODE          1   DOF  2
   INSTANCE:                                                                                 
 LARGEST INCREMENT OF DISP.         0.635       AT NODE          7   DOF  1
   INSTANCE: CF-1                                                                            
 LARGEST CORRECTION TO DISP.       -1.692E-02   AT NODE        114   DOF  1
   INSTANCE: CF-2                                                                            
          DISP.    CORRECTION TOO LARGE COMPARED TO DISP.    INCREMENT

 AVERAGE MOMENT                     0.125       TIME AVG. MOMENT      0.125    
 LARGEST RESIDUAL MOMENT           -8.075E-05   AT NODE          1   DOF  4
   INSTANCE:                                                                                 
 LARGEST INCREMENT OF ROTATION      7.433E-03   AT NODE        676   DOF  5
   INSTANCE: CF-1                                                                            
 LARGEST CORRECTION TO ROTATION    -1.538E-04   AT NODE         45   DOF  6
   INSTANCE: CF-2                                                                            
          ROTATION CORRECTION TOO LARGE COMPARED TO ROTATION INCREMENT

  NUMBER OF EQUATIONS =     29571     NUMBER OF RHS =    1
  NUMBER OF FLOATING PT. OPERATIONS =  6.90E+10

  USING THE DIRECT SOLVER WITH   6 PROCESSORS

     CHECK POINT   START OF SOLVER    

     CHECK POINT  END OF SOLVER       

       ELAPSED USER TIME (SEC)      =   8.1000    
       ELAPSED SYSTEM TIME (SEC)    =   0.0000    
       ELAPSED TOTAL CPU TIME (SEC) =   8.1000    
       ELAPSED WALLCLOCK TIME (SEC) =          1
 

 ***WARNING: SOLVER PROBLEM. NUMERICAL SINGULARITY WHEN PROCESSING NODE 
             ASSEMBLY.1 D.O.F. 6 RATIO = 22.1056E+09 .
  
     ASYNCHRONOUS TRACKING ELEMENT LOOP STARTED
  

               CONVERGENCE CHECKS FOR EQUILIBRIUM ITERATION     4

   MAX. PENETRATION ERROR 6.99751E-12 AT NODE BATTERY-1.5 OF CONTACT PAIR 
   (ASSEMBLY_BATTERY-1_BATBOT,ASSEMBLY_CF-1_CFTOP)
   MAX. CONTACT FORCE ERROR -9.04437E-09 AT NODE BATTERY-1.2548 OF CONTACT PAIR 
   (ASSEMBLY_BATTERY-1_BATTOP,ASSEMBLY_CF-2_CFBOT)
          THE CONTACT CONSTRAINTS HAVE CONVERGED.

 AVERAGE FORCE                      0.215       TIME AVG. FORCE       0.215    
 LARGEST RESIDUAL FORCE            -1.073E-05   AT NODE          1   DOF  2
   INSTANCE:                                                                                 
 LARGEST INCREMENT OF DISP.         0.651       AT NODE          7   DOF  1
   INSTANCE: CF-1                                                                            
 LARGEST CORRECTION TO DISP.        1.592E-02   AT NODE        114   DOF  1
   INSTANCE: CF-2                                                                            
          DISP.    CORRECTION TOO LARGE COMPARED TO DISP.    INCREMENT

 AVERAGE MOMENT                     0.125       TIME AVG. MOMENT      0.125    
 LARGEST RESIDUAL MOMENT            7.825E-05   AT NODE          1   DOF  4
   INSTANCE:                                                                                 
 LARGEST INCREMENT OF ROTATION      7.433E-03   AT NODE        676   DOF  5
   INSTANCE: CF-1                                                                            
 LARGEST CORRECTION TO ROTATION     1.447E-04   AT NODE         45   DOF  6
   INSTANCE: CF-2                                                                            
          ROTATION CORRECTION TOO LARGE COMPARED TO ROTATION INCREMENT

  NUMBER OF EQUATIONS =     29571     NUMBER OF RHS =    1
  NUMBER OF FLOATING PT. OPERATIONS =  6.90E+10

  USING THE DIRECT SOLVER WITH   6 PROCESSORS

     CHECK POINT   START OF SOLVER    

     CHECK POINT  END OF SOLVER       

       ELAPSED USER TIME (SEC)      =   8.1000    
       ELAPSED SYSTEM TIME (SEC)    =  0.10000    
       ELAPSED TOTAL CPU TIME (SEC) =   8.2000    
       ELAPSED WALLCLOCK TIME (SEC) =          1
 

 ***WARNING: SOLVER PROBLEM. NUMERICAL SINGULARITY WHEN PROCESSING NODE 
             ASSEMBLY.1 D.O.F. 6 RATIO = 22.1123E+09 .
  
     ASYNCHRONOUS TRACKING ELEMENT LOOP STARTED
  

               CONVERGENCE CHECKS FOR EQUILIBRIUM ITERATION     5

   MAX. PENETRATION ERROR -7.06189E-12 AT NODE BATTERY-1.271 OF CONTACT PAIR 
   (ASSEMBLY_BATTERY-1_BATBOT,ASSEMBLY_CF-1_CFTOP)
   MAX. CONTACT FORCE ERROR -8.95161E-09 AT NODE BATTERY-1.271 OF CONTACT PAIR 
   (ASSEMBLY_BATTERY-1_BATBOT,ASSEMBLY_CF-1_CFTOP)
          THE CONTACT CONSTRAINTS HAVE CONVERGED.

 AVERAGE FORCE                      0.215       TIME AVG. FORCE       0.215    
 LARGEST RESIDUAL FORCE             1.009E-05   AT NODE          1   DOF  2
   INSTANCE:                                                                                 
 LARGEST INCREMENT OF DISP.         0.636       AT NODE          7   DOF  1
   INSTANCE: CF-1                                                                            
 LARGEST CORRECTION TO DISP.       -1.498E-02   AT NODE        114   DOF  1
   INSTANCE: CF-2                                                                            
          DISP.    CORRECTION TOO LARGE COMPARED TO DISP.    INCREMENT

 AVERAGE MOMENT                     0.125       TIME AVG. MOMENT      0.125    
 LARGEST RESIDUAL MOMENT           -7.160E-05   AT NODE          1   DOF  4
   INSTANCE:                                                                                 
 LARGEST INCREMENT OF ROTATION      7.433E-03   AT NODE        676   DOF  5
   INSTANCE: CF-1                                                                            
 LARGEST CORRECTION TO ROTATION    -1.362E-04   AT NODE         45   DOF  6
   INSTANCE: CF-2                                                                            
          ROTATION CORRECTION TOO LARGE COMPARED TO ROTATION INCREMENT

  NUMBER OF EQUATIONS =     29571     NUMBER OF RHS =    1
  NUMBER OF FLOATING PT. OPERATIONS =  6.90E+10

  USING THE DIRECT SOLVER WITH   6 PROCESSORS

     CHECK POINT   START OF SOLVER    

     CHECK POINT  END OF SOLVER       

       ELAPSED USER TIME (SEC)      =   8.1000    
       ELAPSED SYSTEM TIME (SEC)    =  0.10000    
       ELAPSED TOTAL CPU TIME (SEC) =   8.2000    
       ELAPSED WALLCLOCK TIME (SEC) =          2
 

 ***WARNING: SOLVER PROBLEM. NUMERICAL SINGULARITY WHEN PROCESSING NODE 
             ASSEMBLY.1 D.O.F. 6 RATIO = 22.1095E+09 .
  
     ASYNCHRONOUS TRACKING ELEMENT LOOP STARTED
  

               CONVERGENCE CHECKS FOR EQUILIBRIUM ITERATION     6

   MAX. PENETRATION ERROR 6.22126E-12 AT NODE BATTERY-1.5 OF CONTACT PAIR 
   (ASSEMBLY_BATTERY-1_BATBOT,ASSEMBLY_CF-1_CFTOP)
   MAX. CONTACT FORCE ERROR -7.91955E-09 AT NODE BATTERY-1.2548 OF CONTACT PAIR 
   (ASSEMBLY_BATTERY-1_BATTOP,ASSEMBLY_CF-2_CFBOT)
          THE CONTACT CONSTRAINTS HAVE CONVERGED.

 AVERAGE FORCE                      0.215       TIME AVG. FORCE       0.215    
 LARGEST RESIDUAL FORCE            -9.498E-06   AT NODE          1   DOF  2
   INSTANCE:                                                                                 
 LARGEST INCREMENT OF DISP.         0.650       AT NODE          7   DOF  1
   INSTANCE: CF-1                                                                            
 LARGEST CORRECTION TO DISP.        1.409E-02   AT NODE        114   DOF  1
   INSTANCE: CF-2                                                                            
          DISP.    CORRECTION TOO LARGE COMPARED TO DISP.    INCREMENT

 AVERAGE MOMENT                     0.125       TIME AVG. MOMENT      0.125    
 LARGEST RESIDUAL MOMENT            6.916E-05   AT NODE          1   DOF  4
   INSTANCE:                                                                                 
 LARGEST INCREMENT OF ROTATION      7.433E-03   AT NODE        676   DOF  5
   INSTANCE: CF-1                                                                            
 LARGEST CORRECTION TO ROTATION     1.281E-04   AT NODE         45   DOF  6
   INSTANCE: CF-2                                                                            
          ROTATION CORRECTION TOO LARGE COMPARED TO ROTATION INCREMENT

  NUMBER OF EQUATIONS =     29571     NUMBER OF RHS =    1
  NUMBER OF FLOATING PT. OPERATIONS =  6.90E+10

  USING THE DIRECT SOLVER WITH   6 PROCESSORS

     CHECK POINT   START OF SOLVER    

     CHECK POINT  END OF SOLVER       

       ELAPSED USER TIME (SEC)      =   8.2000    
       ELAPSED SYSTEM TIME (SEC)    =   0.0000    
       ELAPSED TOTAL CPU TIME (SEC) =   8.2000    
       ELAPSED WALLCLOCK TIME (SEC) =          1
 

 ***WARNING: SOLVER PROBLEM. NUMERICAL SINGULARITY WHEN PROCESSING NODE 
             ASSEMBLY.1 D.O.F. 6 RATIO = 22.1136E+09 .
  
     ASYNCHRONOUS TRACKING ELEMENT LOOP STARTED
  

               CONVERGENCE CHECKS FOR EQUILIBRIUM ITERATION     7

   MAX. PENETRATION ERROR -6.22058E-12 AT NODE BATTERY-1.5 OF CONTACT PAIR 
   (ASSEMBLY_BATTERY-1_BATBOT,ASSEMBLY_CF-1_CFTOP)
   MAX. CONTACT FORCE ERROR -7.85109E-09 AT NODE BATTERY-1.271 OF CONTACT PAIR 
   (ASSEMBLY_BATTERY-1_BATBOT,ASSEMBLY_CF-1_CFTOP)
          THE CONTACT CONSTRAINTS HAVE CONVERGED.

 AVERAGE FORCE                      0.215       TIME AVG. FORCE       0.215    
 LARGEST RESIDUAL FORCE             8.937E-06   AT NODE          1   DOF  2
   INSTANCE:                                                                                 
 LARGEST INCREMENT OF DISP.         0.637       AT NODE          7   DOF  1
   INSTANCE: CF-1                                                                            
 LARGEST CORRECTION TO DISP.       -1.326E-02   AT NODE        114   DOF  1
   INSTANCE: CF-2                                                                            
          DISP.    CORRECTION TOO LARGE COMPARED TO DISP.    INCREMENT

 AVERAGE MOMENT                     0.125       TIME AVG. MOMENT      0.125    
 LARGEST RESIDUAL MOMENT           -6.350E-05   AT NODE          1   DOF  4
   INSTANCE:                                                                                 
 LARGEST INCREMENT OF ROTATION      7.433E-03   AT NODE        676   DOF  5
   INSTANCE: CF-1                                                                            
 LARGEST CORRECTION TO ROTATION    -1.206E-04   AT NODE         45   DOF  6
   INSTANCE: CF-2                                                                            
          ROTATION CORRECTION TOO LARGE COMPARED TO ROTATION INCREMENT

  NUMBER OF EQUATIONS =     29571     NUMBER OF RHS =    1
  NUMBER OF FLOATING PT. OPERATIONS =  6.90E+10

  USING THE DIRECT SOLVER WITH   6 PROCESSORS

     CHECK POINT   START OF SOLVER    

     CHECK POINT  END OF SOLVER       

       ELAPSED USER TIME (SEC)      =   8.4000    
       ELAPSED SYSTEM TIME (SEC)    =  0.10000    
       ELAPSED TOTAL CPU TIME (SEC) =   8.5000    
       ELAPSED WALLCLOCK TIME (SEC) =          1
 

 ***WARNING: SOLVER PROBLEM. NUMERICAL SINGULARITY WHEN PROCESSING NODE 
             ASSEMBLY.1 D.O.F. 6 RATIO = 22.1101E+09 .
  
     ASYNCHRONOUS TRACKING ELEMENT LOOP STARTED
  

               CONVERGENCE CHECKS FOR EQUILIBRIUM ITERATION     8

   MAX. PENETRATION ERROR 5.53017E-12 AT NODE BATTERY-1.5 OF CONTACT PAIR 
   (ASSEMBLY_BATTERY-1_BATBOT,ASSEMBLY_CF-1_CFTOP)
   MAX. CONTACT FORCE ERROR 6.96481E-09 AT NODE BATTERY-1.5 OF CONTACT PAIR 
   (ASSEMBLY_BATTERY-1_BATBOT,ASSEMBLY_CF-1_CFTOP)
          THE CONTACT CONSTRAINTS HAVE CONVERGED.

 AVERAGE FORCE                      0.215       TIME AVG. FORCE       0.215    
 LARGEST RESIDUAL FORCE            -8.412E-06   AT NODE          1   DOF  2
   INSTANCE:                                                                                 
 LARGEST INCREMENT OF DISP.         0.649       AT NODE          7   DOF  1
   INSTANCE: CF-1                                                                            
 LARGEST CORRECTION TO DISP.        1.248E-02   AT NODE        114   DOF  1
   INSTANCE: CF-2                                                                            
          DISP.    CORRECTION TOO LARGE COMPARED TO DISP.    INCREMENT

 AVERAGE MOMENT                     0.125       TIME AVG. MOMENT      0.125    
 LARGEST RESIDUAL MOMENT            6.117E-05   AT NODE          1   DOF  4
   INSTANCE:                                                                                 
 LARGEST INCREMENT OF ROTATION      7.433E-03   AT NODE        676   DOF  5
   INSTANCE: CF-1                                                                            
 LARGEST CORRECTION TO ROTATION     1.135E-04   AT NODE         45   DOF  6
   INSTANCE: CF-2                                                                            
          ROTATION CORRECTION TOO LARGE COMPARED TO ROTATION INCREMENT

  NUMBER OF EQUATIONS =     29571     NUMBER OF RHS =    1
  NUMBER OF FLOATING PT. OPERATIONS =  6.90E+10

  USING THE DIRECT SOLVER WITH   6 PROCESSORS

     CHECK POINT   START OF SOLVER    

     CHECK POINT  END OF SOLVER       

       ELAPSED USER TIME (SEC)      =   8.0000    
       ELAPSED SYSTEM TIME (SEC)    =  0.10000    
       ELAPSED TOTAL CPU TIME (SEC) =   8.1000    
       ELAPSED WALLCLOCK TIME (SEC) =          2
 

 ***WARNING: SOLVER PROBLEM. NUMERICAL SINGULARITY WHEN PROCESSING NODE 
             ASSEMBLY.1 D.O.F. 6 RATIO = 22.1068E+09 .
  
     ASYNCHRONOUS TRACKING ELEMENT LOOP STARTED
  

               CONVERGENCE CHECKS FOR EQUILIBRIUM ITERATION     9

   MAX. PENETRATION ERROR -5.48966E-12 AT NODE BATTERY-1.5 OF CONTACT PAIR 
   (ASSEMBLY_BATTERY-1_BATBOT,ASSEMBLY_CF-1_CFTOP)
   MAX. CONTACT FORCE ERROR -6.91378E-09 AT NODE BATTERY-1.5 OF CONTACT PAIR 
   (ASSEMBLY_BATTERY-1_BATBOT,ASSEMBLY_CF-1_CFTOP)
          THE CONTACT CONSTRAINTS HAVE CONVERGED.

 AVERAGE FORCE                      0.215       TIME AVG. FORCE       0.215    
 LARGEST RESIDUAL FORCE             7.913E-06   AT NODE          1   DOF  2
   INSTANCE:                                                                                 
 LARGEST INCREMENT OF DISP.         0.638       AT NODE          7   DOF  1
   INSTANCE: CF-1                                                                            
 LARGEST CORRECTION TO DISP.       -1.174E-02   AT NODE        114   DOF  1
   INSTANCE: CF-2                                                                            
          DISP.    CORRECTION TOO LARGE COMPARED TO DISP.    INCREMENT

 AVERAGE MOMENT                     0.125       TIME AVG. MOMENT      0.125    
 LARGEST RESIDUAL MOMENT           -5.630E-05   AT NODE          1   DOF  4
   INSTANCE:                                                                                 
 LARGEST INCREMENT OF ROTATION      7.433E-03   AT NODE        676   DOF  5
   INSTANCE: CF-1                                                                            
 LARGEST CORRECTION TO ROTATION    -1.068E-04   AT NODE         45   DOF  6
   INSTANCE: CF-2                                                                            
          ROTATION CORRECTION TOO LARGE COMPARED TO ROTATION INCREMENT

  NUMBER OF EQUATIONS =     29571     NUMBER OF RHS =    1
  NUMBER OF FLOATING PT. OPERATIONS =  6.90E+10

  USING THE DIRECT SOLVER WITH   6 PROCESSORS

     CHECK POINT   START OF SOLVER    

     CHECK POINT  END OF SOLVER       

       ELAPSED USER TIME (SEC)      =   8.2000    
       ELAPSED SYSTEM TIME (SEC)    =   0.0000    
       ELAPSED TOTAL CPU TIME (SEC) =   8.2000    
       ELAPSED WALLCLOCK TIME (SEC) =          2
 

 ***WARNING: SOLVER PROBLEM. NUMERICAL SINGULARITY WHEN PROCESSING NODE 
             ASSEMBLY.1 D.O.F. 6 RATIO = 22.1084E+09 .
  
     ASYNCHRONOUS TRACKING ELEMENT LOOP STARTED
  

               CONVERGENCE CHECKS FOR EQUILIBRIUM ITERATION    10

   MAX. PENETRATION ERROR 4.91038E-12 AT NODE BATTERY-1.5 OF CONTACT PAIR 
   (ASSEMBLY_BATTERY-1_BATBOT,ASSEMBLY_CF-1_CFTOP)
   MAX. CONTACT FORCE ERROR 6.18423E-09 AT NODE BATTERY-1.5 OF CONTACT PAIR 
   (ASSEMBLY_BATTERY-1_BATBOT,ASSEMBLY_CF-1_CFTOP)
          THE CONTACT CONSTRAINTS HAVE CONVERGED.

 AVERAGE FORCE                      0.215       TIME AVG. FORCE       0.215    
 LARGEST RESIDUAL FORCE            -7.445E-06   AT NODE          1   DOF  2
   INSTANCE:                                                                                 
 LARGEST INCREMENT OF DISP.         0.649       AT NODE          7   DOF  1
   INSTANCE: CF-1                                                                            
 LARGEST CORRECTION TO DISP.        1.105E-02   AT NODE        114   DOF  1
   INSTANCE: CF-2                                                                            
          DISP.    CORRECTION TOO LARGE COMPARED TO DISP.    INCREMENT

 AVERAGE MOMENT                     0.125       TIME AVG. MOMENT      0.125    
 LARGEST RESIDUAL MOMENT            5.407E-05   AT NODE          1   DOF  4
   INSTANCE:                                                                                 
 LARGEST INCREMENT OF ROTATION      7.433E-03   AT NODE        676   DOF  5
   INSTANCE: CF-1                                                                            
 LARGEST CORRECTION TO ROTATION     1.004E-04   AT NODE         45   DOF  6
   INSTANCE: CF-2                                                                            
          ROTATION CORRECTION TOO LARGE COMPARED TO ROTATION INCREMENT

  NUMBER OF EQUATIONS =     29571     NUMBER OF RHS =    1
  NUMBER OF FLOATING PT. OPERATIONS =  6.90E+10

  USING THE DIRECT SOLVER WITH   6 PROCESSORS

     CHECK POINT   START OF SOLVER    

     CHECK POINT  END OF SOLVER       

       ELAPSED USER TIME (SEC)      =   8.3000    
       ELAPSED SYSTEM TIME (SEC)    =   0.0000    
       ELAPSED TOTAL CPU TIME (SEC) =   8.3000    
       ELAPSED WALLCLOCK TIME (SEC) =          1
 

 ***WARNING: SOLVER PROBLEM. NUMERICAL SINGULARITY WHEN PROCESSING NODE 
             ASSEMBLY.1 D.O.F. 6 RATIO = 22.1143E+09 .
  
     ASYNCHRONOUS TRACKING ELEMENT LOOP STARTED
  

               CONVERGENCE CHECKS FOR EQUILIBRIUM ITERATION    11

   MAX. PENETRATION ERROR -4.84567E-12 AT NODE BATTERY-1.5 OF CONTACT PAIR 
   (ASSEMBLY_BATTERY-1_BATBOT,ASSEMBLY_CF-1_CFTOP)
   MAX. CONTACT FORCE ERROR -6.10273E-09 AT NODE BATTERY-1.5 OF CONTACT PAIR 
   (ASSEMBLY_BATTERY-1_BATBOT,ASSEMBLY_CF-1_CFTOP)
          THE CONTACT CONSTRAINTS HAVE CONVERGED.

 AVERAGE FORCE                      0.215       TIME AVG. FORCE       0.215    
 LARGEST RESIDUAL FORCE             7.005E-06   AT NODE          1   DOF  2
   INSTANCE:                                                                                 
 LARGEST INCREMENT OF DISP.         0.638       AT NODE          7   DOF  1
   INSTANCE: CF-1                                                                            
 LARGEST CORRECTION TO DISP.       -1.040E-02   AT NODE        114   DOF  1
   INSTANCE: CF-2                                                                            
          DISP.    CORRECTION TOO LARGE COMPARED TO DISP.    INCREMENT

 AVERAGE MOMENT                     0.125       TIME AVG. MOMENT      0.125    
 LARGEST RESIDUAL MOMENT           -4.990E-05   AT NODE          1   DOF  4
   INSTANCE:                                                                                 
 LARGEST INCREMENT OF ROTATION      7.433E-03   AT NODE        676   DOF  5
   INSTANCE: CF-1                                                                            
 LARGEST CORRECTION TO ROTATION    -9.452E-05   AT NODE         45   DOF  6
   INSTANCE: CF-2                                                                            
          ROTATION CORRECTION TOO LARGE COMPARED TO ROTATION INCREMENT

  NUMBER OF EQUATIONS =     29571     NUMBER OF RHS =    1
  NUMBER OF FLOATING PT. OPERATIONS =  6.90E+10

  USING THE DIRECT SOLVER WITH   6 PROCESSORS

     CHECK POINT   START OF SOLVER    

     CHECK POINT  END OF SOLVER       

       ELAPSED USER TIME (SEC)      =   8.2000    
       ELAPSED SYSTEM TIME (SEC)    =  0.10000    
       ELAPSED TOTAL CPU TIME (SEC) =   8.3000    
       ELAPSED WALLCLOCK TIME (SEC) =          1
 

 ***WARNING: SOLVER PROBLEM. NUMERICAL SINGULARITY WHEN PROCESSING NODE 
             ASSEMBLY.1 D.O.F. 6 RATIO = 22.1090E+09 .
  
     ASYNCHRONOUS TRACKING ELEMENT LOOP STARTED
  

               CONVERGENCE CHECKS FOR EQUILIBRIUM ITERATION    12

   MAX. PENETRATION ERROR 4.36114E-12 AT NODE BATTERY-1.5 OF CONTACT PAIR 
   (ASSEMBLY_BATTERY-1_BATBOT,ASSEMBLY_CF-1_CFTOP)
   MAX. CONTACT FORCE ERROR 5.49251E-09 AT NODE BATTERY-1.5 OF CONTACT PAIR 
[...]
  

               CONVERGENCE CHECKS FOR EQUILIBRIUM ITERATION     2

   MAX. PENETRATION ERROR -16.5246E-12  AT NODE BATTERY-1.1110 OF CONTACT PAIR 
   (ASSEMBLY_BATTERY-1_BATBOT,ASSEMBLY_CF-1_CFTOP)
   MAX. CONTACT FORCE ERROR -20.9822E-09  AT NODE BATTERY-1.2548 OF CONTACT 
   PAIR (ASSEMBLY_BATTERY-1_BATTOP,ASSEMBLY_CF-2_CFBOT)
          THE CONTACT CONSTRAINTS HAVE CONVERGED.

 AVERAGE FORCE                      0.108       TIME AVG. FORCE       8.085E-02
 LARGEST RESIDUAL FORCE            -1.308E-04   AT NODE          1   DOF  2
   INSTANCE:                                                                                 
 LARGEST INCREMENT OF DISP.         0.143       AT NODE          7   DOF  1
   INSTANCE: CF-1                                                                            
 LARGEST CORRECTION TO DISP.        0.187       AT NODE        114   DOF  1
   INSTANCE: CF-2                                                                            
          DISP.    CORRECTION TOO LARGE COMPARED TO DISP.    INCREMENT

 AVERAGE MOMENT                     3.314E-02   TIME AVG. MOMENT      3.241E-02
 LARGEST RESIDUAL MOMENT           -2.256E-04   AT NODE          1   DOF  6
   INSTANCE:                                                                                 
 LARGEST INCREMENT OF ROTATION      1.301E-03   AT NODE        173   DOF  6
   INSTANCE: CF-1                                                                            
 LARGEST CORRECTION TO ROTATION     1.696E-03   AT NODE         45   DOF  6
   INSTANCE: CF-2                                                                            
          MOMENT    EQUILIBRIUM NOT ACHIEVED WITHIN TOLERANCE.

  NUMBER OF EQUATIONS =     29571     NUMBER OF RHS =    1
  NUMBER OF FLOATING PT. OPERATIONS =  9.08E+10

  USING THE DIRECT SOLVER WITH   6 PROCESSORS

     CHECK POINT   START OF SOLVER    

     CHECK POINT  END OF SOLVER       

       ELAPSED USER TIME (SEC)      =   10.800    
       ELAPSED SYSTEM TIME (SEC)    =  0.10000    
       ELAPSED TOTAL CPU TIME (SEC) =   10.900    
       ELAPSED WALLCLOCK TIME (SEC) =          2
 

 ***WARNING: SOLVER PROBLEM. NUMERICAL SINGULARITY WHEN PROCESSING NODE 
             ASSEMBLY.1 D.O.F. 6 RATIO = 1.23116E+12.
  
     ASYNCHRONOUS TRACKING ELEMENT LOOP STARTED
  

               CONVERGENCE CHECKS FOR EQUILIBRIUM ITERATION     3

   MAX. PENETRATION ERROR -135.380E-12   AT NODE BATTERY-1.1110 OF CONTACT PAIR 
   (ASSEMBLY_BATTERY-1_BATBOT,ASSEMBLY_CF-1_CFTOP)
   MAX. CONTACT FORCE ERROR -197.955E-09   AT NODE BATTERY-1.335 OF CONTACT 
   PAIR (ASSEMBLY_BATTERY-1_BATBOT,ASSEMBLY_CF-1_CFTOP)
          THE CONTACT CONSTRAINTS HAVE CONVERGED.

 AVERAGE FORCE                      0.108       TIME AVG. FORCE       8.086E-02
 LARGEST RESIDUAL FORCE             3.743E-04   AT NODE          1   DOF  2
   INSTANCE:                                                                                 
 LARGEST INCREMENT OF DISP.        -0.391       AT NODE          4   DOF  1
   INSTANCE: CF-1                                                                            
 LARGEST CORRECTION TO DISP.       -0.534       AT NODE        114   DOF  1
   INSTANCE: CF-2                                                                            
          DISP.    CORRECTION TOO LARGE COMPARED TO DISP.    INCREMENT

 AVERAGE MOMENT                     3.314E-02   TIME AVG. MOMENT      3.241E-02
 LARGEST RESIDUAL MOMENT            6.460E-04   AT NODE          1   DOF  6
   INSTANCE:                                                                                 
 LARGEST INCREMENT OF ROTATION     -3.557E-03   AT NODE        201   DOF  6
   INSTANCE: CF-1                                                                            
 LARGEST CORRECTION TO ROTATION    -4.854E-03   AT NODE         45   DOF  6
   INSTANCE: CF-2                                                                            
          MOMENT    EQUILIBRIUM NOT ACHIEVED WITHIN TOLERANCE.

  NUMBER OF EQUATIONS =     29571     NUMBER OF RHS =    1
  NUMBER OF FLOATING PT. OPERATIONS =  9.08E+10

  USING THE DIRECT SOLVER WITH   6 PROCESSORS

     CHECK POINT   START OF SOLVER    

     CHECK POINT  END OF SOLVER       

       ELAPSED USER TIME (SEC)      =   10.700    
       ELAPSED SYSTEM TIME (SEC)    =   0.0000    
       ELAPSED TOTAL CPU TIME (SEC) =   10.700    
       ELAPSED WALLCLOCK TIME (SEC) =          1
 

 ***WARNING: SOLVER PROBLEM. NUMERICAL SINGULARITY WHEN PROCESSING NODE 
             ASSEMBLY.1 D.O.F. 6 RATIO = 1.23743E+12.
  
     ASYNCHRONOUS TRACKING ELEMENT LOOP STARTED
  

               CONVERGENCE CHECKS FOR EQUILIBRIUM ITERATION     4

   MAX. PENETRATION ERROR -1.12141E-09 AT NODE BATTERY-1.1110 OF CONTACT PAIR 
   (ASSEMBLY_BATTERY-1_BATBOT,ASSEMBLY_CF-1_CFTOP)
   MAX. CONTACT FORCE ERROR -1.32480E-06 AT NODE BATTERY-1.335 OF CONTACT PAIR 
   (ASSEMBLY_BATTERY-1_BATBOT,ASSEMBLY_CF-1_CFTOP)
          THE CONTACT CONSTRAINTS HAVE CONVERGED.

 AVERAGE FORCE                      0.108       TIME AVG. FORCE       8.085E-02
 LARGEST RESIDUAL FORCE            -1.077E-03   AT NODE          1   DOF  2
   INSTANCE:                                                                                 
 LARGEST INCREMENT OF DISP.          1.15       AT NODE          7   DOF  1
   INSTANCE: CF-1                                                                            
 LARGEST CORRECTION TO DISP.         1.54       AT NODE        114   DOF  1
   INSTANCE: CF-2                                                                            
          FORCE     EQUILIBRIUM NOT ACHIEVED WITHIN TOLERANCE.

 AVERAGE MOMENT                     3.314E-02   TIME AVG. MOMENT      3.241E-02
 LARGEST RESIDUAL MOMENT            2.867E-03   AT NODE          1   DOF  4
   INSTANCE:                                                                                 
 LARGEST INCREMENT OF ROTATION      1.041E-02   AT NODE        173   DOF  6
   INSTANCE: CF-1                                                                            
 LARGEST CORRECTION TO ROTATION     1.397E-02   AT NODE         45   DOF  6
   INSTANCE: CF-2                                                                            
          MOMENT    EQUILIBRIUM NOT ACHIEVED WITHIN TOLERANCE.
 

 ***NOTE: THE SOLUTION APPEARS TO BE DIVERGING. CONVERGENCE IS JUDGED UNLIKELY.


  INCREMENT     2 STARTS. ATTEMPT NUMBER  5, TIME INCREMENT  9.766E-04
  
     ASYNCHRONOUS TRACKING ELEMENT LOOP STARTED
  

  NUMBER OF EQUATIONS =     29571     NUMBER OF RHS =    1
  NUMBER OF FLOATING PT. OPERATIONS =  9.14E+10

  USING THE DIRECT SOLVER WITH   6 PROCESSORS

     CHECK POINT   START OF SOLVER    

     CHECK POINT  END OF SOLVER       

       ELAPSED USER TIME (SEC)      =   10.700    
       ELAPSED SYSTEM TIME (SEC)    =  0.10000    
       ELAPSED TOTAL CPU TIME (SEC) =   10.800    
       ELAPSED WALLCLOCK TIME (SEC) =          2
 

 ***WARNING: SOLVER PROBLEM. NUMERICAL SINGULARITY WHEN PROCESSING NODE 
             ASSEMBLY.1 D.O.F. 6 RATIO = 1.30420E+12.
  
     ASYNCHRONOUS TRACKING ELEMENT LOOP STARTED
  

                    1 SEVERE DISCONTINUITIES OCCURRED DURING THIS ITERATION.
                    1 POINTS CHANGED FROM CLOSED TO OPEN

               CONVERGENCE CHECKS FOR SEVERE DISCONTINUITY ITERATION     1

   MAX. PENETRATION ERROR 113.212E-12   AT NODE BATTERY-1.1110 OF CONTACT PAIR 
   (ASSEMBLY_BATTERY-1_BATBOT,ASSEMBLY_CF-1_CFTOP)
   MAX. CONTACT FORCE ERROR -151.580E-06   AT NODE BATTERY-1.2568 OF CONTACT 
   PAIR (ASSEMBLY_BATTERY-1_BATTOP,ASSEMBLY_CF-2_CFBOT)
          THE CONTACT CONSTRAINT ERRORS ARE WITHIN THE TOLERANCES.

 AVERAGE FORCE                      0.106       TIME AVG. FORCE       8.014E-02
 LARGEST RESIDUAL FORCE            -8.533E-05   AT NODE       2568   DOF  3
   INSTANCE: BATTERY-1                                                                       
 LARGEST INCREMENT OF DISP.         2.303E-02   AT NODE          7   DOF  1
   INSTANCE: CF-1                                                                            
 LARGEST CORRECTION TO DISP.        2.303E-02   AT NODE          7   DOF  1
   INSTANCE: CF-1                                                                            
          DISP.    CORRECTION TOO LARGE COMPARED TO DISP.    INCREMENT

 AVERAGE MOMENT                     3.276E-02   TIME AVG. MOMENT      3.222E-02
 LARGEST RESIDUAL MOMENT           -2.720E-05   AT NODE          1   DOF  6
   INSTANCE:                                                                                 
 LARGEST INCREMENT OF ROTATION      2.094E-04   AT NODE        173   DOF  6
   INSTANCE: CF-1                                                                            
 LARGEST CORRECTION TO ROTATION     2.094E-04   AT NODE        173   DOF  6
   INSTANCE: CF-1                                                                            
 ESTIMATE OF ROTATION CORRECTION    1.690E-06
 MOMENT    EQUILIB. ACCEPTED BASED ON SMALL RESIDUAL AND ESTIMATED CORRECTION

  NUMBER OF EQUATIONS =     29571     NUMBER OF RHS =    1
  NUMBER OF FLOATING PT. OPERATIONS =  9.14E+10

  USING THE DIRECT SOLVER WITH   6 PROCESSORS

     CHECK POINT   START OF SOLVER    

     CHECK POINT  END OF SOLVER       

       ELAPSED USER TIME (SEC)      =   10.600    
       ELAPSED SYSTEM TIME (SEC)    =  0.10000    
       ELAPSED TOTAL CPU TIME (SEC) =   10.700    
       ELAPSED WALLCLOCK TIME (SEC) =          2
 

 ***WARNING: SOLVER PROBLEM. NUMERICAL SINGULARITY WHEN PROCESSING NODE 
             ASSEMBLY.1 D.O.F. 6 RATIO = 1.28357E+12.
  
     ASYNCHRONOUS TRACKING ELEMENT LOOP STARTED
  

               CONVERGENCE CHECKS FOR EQUILIBRIUM ITERATION     1

   MAX. PENETRATION ERROR -5.54745E-12 AT NODE BATTERY-1.271 OF CONTACT PAIR 
   (ASSEMBLY_BATTERY-1_BATBOT,ASSEMBLY_CF-1_CFTOP)
   MAX. CONTACT FORCE ERROR -7.03273E-09 AT NODE BATTERY-1.271 OF CONTACT PAIR 
   (ASSEMBLY_BATTERY-1_BATBOT,ASSEMBLY_CF-1_CFTOP)
          THE CONTACT CONSTRAINTS HAVE CONVERGED.

 AVERAGE FORCE                      0.106       TIME AVG. FORCE       8.014E-02
 LARGEST RESIDUAL FORCE             4.724E-05   AT NODE          1   DOF  2
   INSTANCE:                                                                                 
 LARGEST INCREMENT OF DISP.        -4.533E-02   AT NODE          4   DOF  1
   INSTANCE: CF-1                                                                            
 LARGEST CORRECTION TO DISP.       -6.833E-02   AT NODE        114   DOF  1
   INSTANCE: CF-2                                                                            
          DISP.    CORRECTION TOO LARGE COMPARED TO DISP.    INCREMENT

 AVERAGE MOMENT                     3.276E-02   TIME AVG. MOMENT      3.222E-02
 LARGEST RESIDUAL MOMENT            8.141E-05   AT NODE          1   DOF  6
   INSTANCE:                                                                                 
 LARGEST INCREMENT OF ROTATION     -4.126E-04   AT NODE        201   DOF  6
   INSTANCE: CF-1                                                                            
 LARGEST CORRECTION TO ROTATION    -6.212E-04   AT NODE         45   DOF  6
   INSTANCE: CF-2                                                                            
          ROTATION CORRECTION TOO LARGE COMPARED TO ROTATION INCREMENT

  NUMBER OF EQUATIONS =     29571     NUMBER OF RHS =    1
  NUMBER OF FLOATING PT. OPERATIONS =  9.14E+10

  USING THE DIRECT SOLVER WITH   6 PROCESSORS

     CHECK POINT   START OF SOLVER    

     CHECK POINT  END OF SOLVER       

       ELAPSED USER TIME (SEC)      =   10.600    
       ELAPSED SYSTEM TIME (SEC)    =  0.10000    
       ELAPSED TOTAL CPU TIME (SEC) =   10.700    
       ELAPSED WALLCLOCK TIME (SEC) =          1
 

 ***WARNING: SOLVER PROBLEM. NUMERICAL SINGULARITY WHEN PROCESSING NODE 
             ASSEMBLY.1 D.O.F. 6 RATIO = 1.28223E+12.
  
     ASYNCHRONOUS TRACKING ELEMENT LOOP STARTED
  

               CONVERGENCE CHECKS FOR EQUILIBRIUM ITERATION     2

   MAX. PENETRATION ERROR -18.3821E-12  AT NODE BATTERY-1.1110 OF CONTACT PAIR 
   (ASSEMBLY_BATTERY-1_BATBOT,ASSEMBLY_CF-1_CFTOP)
   MAX. CONTACT FORCE ERROR -22.5705E-09  AT NODE BATTERY-1.2548 OF CONTACT 
   PAIR (ASSEMBLY_BATTERY-1_BATTOP,ASSEMBLY_CF-2_CFBOT)
          THE CONTACT CONSTRAINTS HAVE CONVERGED.

 AVERAGE FORCE                      0.106       TIME AVG. FORCE       8.014E-02
 LARGEST RESIDUAL FORCE            -1.376E-04   AT NODE          1   DOF  2
   INSTANCE:                                                                                 
 LARGEST INCREMENT OF DISP.         0.154       AT NODE          7   DOF  1
   INSTANCE: CF-1                                                                            
 LARGEST CORRECTION TO DISP.        0.199       AT NODE        114   DOF  1
   INSTANCE: CF-2                                                                            
          DISP.    CORRECTION TOO LARGE COMPARED TO DISP.    INCREMENT

 AVERAGE MOMENT                     3.276E-02   TIME AVG. MOMENT      3.222E-02
 LARGEST RESIDUAL MOMENT           -2.370E-04   AT NODE          1   DOF  6
   INSTANCE:                                                                                 
 LARGEST INCREMENT OF ROTATION      1.397E-03   AT NODE        173   DOF  6
   INSTANCE: CF-1                                                                            
 LARGEST CORRECTION TO ROTATION     1.809E-03   AT NODE         45   DOF  6
   INSTANCE: CF-2                                                                            
          MOMENT    EQUILIBRIUM NOT ACHIEVED WITHIN TOLERANCE.

  NUMBER OF EQUATIONS =     29571     NUMBER OF RHS =    1
  NUMBER OF FLOATING PT. OPERATIONS =  9.14E+10

  USING THE DIRECT SOLVER WITH   6 PROCESSORS

     CHECK POINT   START OF SOLVER    

     CHECK POINT  END OF SOLVER       

       ELAPSED USER TIME (SEC)      =   10.600    
       ELAPSED SYSTEM TIME (SEC)    =   0.0000    
       ELAPSED TOTAL CPU TIME (SEC) =   10.600    
       ELAPSED WALLCLOCK TIME (SEC) =          2
 

 ***WARNING: SOLVER PROBLEM. NUMERICAL SINGULARITY WHEN PROCESSING NODE 
             ASSEMBLY.1 D.O.F. 6 RATIO = 1.28501E+12.
  
     ASYNCHRONOUS TRACKING ELEMENT LOOP STARTED
  

               CONVERGENCE CHECKS FOR EQUILIBRIUM ITERATION     3

   MAX. PENETRATION ERROR -156.389E-12   AT NODE BATTERY-1.1110 OF CONTACT PAIR 
   (ASSEMBLY_BATTERY-1_BATBOT,ASSEMBLY_CF-1_CFTOP)
   MAX. CONTACT FORCE ERROR -226.405E-09   AT NODE BATTERY-1.335 OF CONTACT 
   PAIR (ASSEMBLY_BATTERY-1_BATBOT,ASSEMBLY_CF-1_CFTOP)
          THE CONTACT CONSTRAINTS HAVE CONVERGED.

 AVERAGE FORCE                      0.106       TIME AVG. FORCE       8.015E-02
 LARGEST RESIDUAL FORCE             4.013E-04   AT NODE          1   DOF  2
   INSTANCE:                                                                                 
 LARGEST INCREMENT OF DISP.        -0.427       AT NODE          4   DOF  1
   INSTANCE: CF-1                                                                            
 LARGEST CORRECTION TO DISP.       -0.580       AT NODE        114   DOF  1
   INSTANCE: CF-2                                                                            
          FORCE     EQUILIBRIUM NOT ACHIEVED WITHIN TOLERANCE.

 AVERAGE MOMENT                     3.276E-02   TIME AVG. MOMENT      3.222E-02
 LARGEST RESIDUAL MOMENT            6.917E-04   AT NODE          1   DOF  6
   INSTANCE:                                                                                 
 LARGEST INCREMENT OF ROTATION     -3.880E-03   AT NODE        201   DOF  6
   INSTANCE: CF-1                                                                            
 LARGEST CORRECTION TO ROTATION    -5.276E-03   AT NODE         45   DOF  6
   INSTANCE: CF-2                                                                            
          MOMENT    EQUILIBRIUM NOT ACHIEVED WITHIN TOLERANCE.

  NUMBER OF EQUATIONS =     29571     NUMBER OF RHS =    1
  NUMBER OF FLOATING PT. OPERATIONS =  9.14E+10

  USING THE DIRECT SOLVER WITH   6 PROCESSORS

     CHECK POINT   START OF SOLVER    

     CHECK POINT  END OF SOLVER       

       ELAPSED USER TIME (SEC)      =   10.900    
       ELAPSED SYSTEM TIME (SEC)    =  0.10000    
       ELAPSED TOTAL CPU TIME (SEC) =   11.000    
       ELAPSED WALLCLOCK TIME (SEC) =          2
 

 ***WARNING: SOLVER PROBLEM. NUMERICAL SINGULARITY WHEN PROCESSING NODE 
             ASSEMBLY.1 D.O.F. 6 RATIO = 1.28261E+12.
  
     ASYNCHRONOUS TRACKING ELEMENT LOOP STARTED
  

               CONVERGENCE CHECKS FOR EQUILIBRIUM ITERATION     4

   MAX. PENETRATION ERROR -1.32831E-09 AT NODE BATTERY-1.1110 OF CONTACT PAIR 
   (ASSEMBLY_BATTERY-1_BATBOT,ASSEMBLY_CF-1_CFTOP)
   MAX. CONTACT FORCE ERROR -1.57735E-06 AT NODE BATTERY-1.335 OF CONTACT PAIR 
   (ASSEMBLY_BATTERY-1_BATBOT,ASSEMBLY_CF-1_CFTOP)
          THE CONTACT CONSTRAINTS HAVE CONVERGED.

 AVERAGE FORCE                      0.106       TIME AVG. FORCE       8.014E-02
 LARGEST RESIDUAL FORCE            -1.169E-03   AT NODE          1   DOF  2
   INSTANCE:                                                                                 
 LARGEST INCREMENT OF DISP.          1.26       AT NODE          7   DOF  1
   INSTANCE: CF-1                                                                            
 LARGEST CORRECTION TO DISP.         1.69       AT NODE        114   DOF  1
   INSTANCE: CF-2                                                                            
          FORCE     EQUILIBRIUM NOT ACHIEVED WITHIN TOLERANCE.

 AVERAGE MOMENT                     3.276E-02   TIME AVG. MOMENT      3.222E-02
 LARGEST RESIDUAL MOMENT            3.408E-03   AT NODE          1   DOF  4
   INSTANCE:                                                                                 
 LARGEST INCREMENT OF ROTATION      1.149E-02   AT NODE        173   DOF  6
   INSTANCE: CF-1                                                                            
 LARGEST CORRECTION TO ROTATION     1.537E-02   AT NODE         45   DOF  6
   INSTANCE: CF-2                                                                            
          MOMENT    EQUILIBRIUM NOT ACHIEVED WITHIN TOLERANCE.
 

 ***NOTE: THE SOLUTION APPEARS TO BE DIVERGING. CONVERGENCE IS JUDGED UNLIKELY.
 

 ***ERROR: TOO MANY ATTEMPTS MADE FOR THIS INCREMENT
  
     ASYNCHRONOUS TRACKING ELEMENT LOOP STARTED
  
 

 ***WARNING: SOLVER PROBLEM. NUMERICAL SINGULARITY WHEN PROCESSING NODE 
             ASSEMBLY.1 D.O.F. 6 RATIO = 160.197E+09  .

 ***ERROR: THE ANALYSIS HAS BEEN TERMINATED DUE TO PREVIOUS ERRORS. ALL OUTPUT 
           REQUESTS HAVE BEEN WRITTEN FOR THE LAST CONVERGED INCREMENT.



     ANALYSIS SUMMARY:
     TOTAL OF          2  INCREMENTS
                       6  CUTBACKS IN AUTOMATIC INCREMENTATION
                      80  ITERATIONS INCLUDING CONTACT ITERATIONS IF PRESENT
                      80  PASSES THROUGH THE EQUATION SOLVER OF WHICH 
                      80  INVOLVE MATRIX DECOMPOSITION, INCLUDING
                       0  DECOMPOSITION(S) OF THE MASS MATRIX
                       1  REORDERING OF EQUATIONS TO MINIMIZE WAVEFRONT
                       0  ADDITIONAL RESIDUAL EVALUATIONS FOR LINE SEARCHES
                       0  ADDITIONAL OPERATOR EVALUATIONS FOR LINE SEARCHES
                       0  WARNING MESSAGES DURING USER INPUT PROCESSING
                      82  WARNING MESSAGES DURING ANALYSIS
                      80  ANALYSIS WARNINGS ARE NUMERICAL PROBLEM MESSAGES
                       0  ANALYSIS WARNINGS ARE NEGATIVE EIGENVALUE MESSAGES
                       2  ERROR MESSAGES



     JOB TIME SUMMARY
       USER TIME (SEC)      =   1132.1    
       SYSTEM TIME (SEC)    =   16.800    
       TOTAL CPU TIME (SEC) =   1148.9    
       WALLCLOCK TIME (SEC) =        225
