 Abaqus/Standard 3DEXPERIENCE R2019x                  DATE 26-May-2019 TIME 19:49:45
 SUMMARY OF JOB INFORMATION:
 STEP  INC ATT SEVERE EQUIL TOTAL  TOTAL      STEP       INC OF       DOF    IF
               DISCON ITERS ITERS  TIME/    TIME/LPF    TIME/LPF    MONITOR RIKS
               ITERS               FREQ
   1     1   1U    0     1     1  0.000      0.000      1.000     
   1     1   2U    0     1     1  0.000      0.000      0.2500    
   1     1   3U    0     1     1  0.000      0.000      0.06250   
   1     1   4U    0     1     1  0.000      0.000      0.01563   
   1     1   5U    0     1     1  0.000      0.000      0.003906  
                          
 THE ANALYSIS HAS NOT BEEN COMPLETED
