 Abaqus/Standard 3DEXPERIENCE R2019x                  DATE 28-May-2019 TIME 00:41:25
 SUMMARY OF JOB INFORMATION:
 STEP  INC ATT SEVERE EQUIL TOTAL  TOTAL      STEP       INC OF       DOF    IF
               DISCON ITERS ITERS  TIME/    TIME/LPF    TIME/LPF    MONITOR RIKS
               ITERS               FREQ
   1     1   1U   18    16    34  0.000      0.000      1.000     
   1     1   2U   19    16    35  0.000      0.000      0.2500    
   1     1   3U   10     1    11  0.000      0.000      0.06250   
   1     1   4U   17     6    23  0.000      0.000      0.01563   
   1     1   5    14     1    15  0.00391    0.00391    0.003906  
   1     2   1     3     1     4  0.00781    0.00781    0.003906  
   1     3   1     2     1     3  0.0137     0.0137     0.005859  
   1     4   1     1     1     2  0.0225     0.0225     0.008789  
   1     5   1U    2     3     5  0.0225     0.0225     0.01318   
   1     5   2U    1     8     9  0.0225     0.0225     0.003296  
   1     5   3U    0     4     4  0.0225     0.0225     0.0008240 
   1     5   4     0     3     3  0.0227     0.0227     0.0002060 
   1     6   1U    0     6     6  0.0227     0.0227     0.0003090 
   1     6   2U    0     4     4  0.0227     0.0227     7.725e-05 
