1

   Abaqus 3DEXPERIENCE R2019x                                  Date 29-May-2019   Time 18:20:18
   For demonstration or benchmarking only under agreement with Dassault Systemes or its subsidiary.

                                                                                 
                                                                                 
 STEP    1     INCREMENT     1     STEP TIME    0.00    


                        S T E P       1     S T A T I C   A N A L Y S I S


                                                                                          

     AUTOMATIC TIME CONTROL WITH -
          A SUGGESTED INITIAL TIME INCREMENT OF                 1.00    
          AND A TOTAL TIME PERIOD OF                            1.00    
          THE MINIMUM TIME INCREMENT ALLOWED IS                1.000E-05
          THE MAXIMUM TIME INCREMENT ALLOWED IS                 1.00    

     LINEAR EQUATION SOLVER TYPE         DIRECT SPARSE

 CONVERGENCE TOLERANCE PARAMETERS FOR FORCE    
     CRITERION FOR RESIDUAL FORCE     FOR A NONLINEAR PROBLEM          5.000E-03
     CRITERION FOR DISP.    CORRECTION IN A NONLINEAR PROBLEM          1.000E-02
     INITIAL VALUE OF TIME AVERAGE FORCE                               1.000E-02
     AVERAGE FORCE     IS TIME AVERAGE FORCE    
     ALTERNATE CRIT. FOR RESIDUAL FORCE     FOR A NONLINEAR PROBLEM    2.000E-02
     CRITERION FOR ZERO FORCE     RELATIVE TO TIME AVRG. FORCE         1.000E-05
     CRITERION FOR RESIDUAL FORCE     WHEN THERE IS ZERO FLUX          1.000E-05
     CRITERION FOR DISP.    CORRECTION WHEN THERE IS ZERO FLUX         1.000E-03
     CRITERION FOR RESIDUAL FORCE     FOR A LINEAR INCREMENT           1.000E-08
     FIELD CONVERSION RATIO                                             1.00    
     CRITERION FOR ZERO FORCE     REL. TO TIME AVRG. MAX. FORCE        1.000E-05
     CRITERION FOR ZERO DISP.    RELATIVE TO CHARACTERISTIC LENGTH     1.000E-08

 CONVERGENCE TOLERANCE PARAMETERS FOR MOMENT   
     CRITERION FOR RESIDUAL MOMENT    FOR A NONLINEAR PROBLEM          5.000E-03
     CRITERION FOR ROTATION CORRECTION IN A NONLINEAR PROBLEM          1.000E-02
     INITIAL VALUE OF TIME AVERAGE MOMENT                              1.000E-02
     AVERAGE MOMENT    IS TIME AVERAGE MOMENT   
     ALTERNATE CRIT. FOR RESIDUAL MOMENT    FOR A NONLINEAR PROBLEM    2.000E-02
     CRITERION FOR ZERO MOMENT    RELATIVE TO TIME AVRG. MOMENT        1.000E-05
     CRITERION FOR RESIDUAL MOMENT    WHEN THERE IS ZERO FLUX          1.000E-05
     CRITERION FOR ROTATION CORRECTION WHEN THERE IS ZERO FLUX         1.000E-03
     CRITERION FOR RESIDUAL MOMENT    FOR A LINEAR INCREMENT           1.000E-08
     FIELD CONVERSION RATIO                                             1.00    
     CRITERION FOR ZERO MOMENT    REL. TO TIME AVRG. MAX. MOMENT       1.000E-05

     VOLUMETRIC STRAIN COMPATIBILITY TOLERANCE FOR HYBRID SOLIDS       1.000E-05
     AXIAL STRAIN COMPATIBILITY TOLERANCE FOR HYBRID BEAMS             1.000E-05
     TRANS. SHEAR STRAIN COMPATIBILITY TOLERANCE FOR HYBRID BEAMS      1.000E-05
     SOFT CONTACT CONSTRAINT COMPATIBILITY TOLERANCE FOR P>P0          5.000E-03
     SOFT CONTACT CONSTRAINT COMPATIBILITY TOLERANCE FOR P=0.0         0.100    
     CONTACT FORCE ERROR TOLERANCE FOR CONVERT SDI=YES                 1.00    
     DISPLACEMENT COMPATIBILITY TOLERANCE FOR DCOUP ELEMENTS           1.000E-05
     ROTATION COMPATIBILITY TOLERANCE FOR DCOUP ELEMENTS               1.000E-05

 EQUILIBRIUM WILL BE CHECKED FOR SEVERE DISCONTINUITY ITERATIONS

 TIME INCREMENTATION CONTROL PARAMETERS:
     FIRST EQUILIBRIUM ITERATION FOR CONSECUTIVE DIVERGENCE CHECK              4
     EQUILIBRIUM ITERATION AT WHICH LOG. CONVERGENCE RATE CHECK BEGINS         8
     EQUILIBRIUM ITERATION AFTER WHICH ALTERNATE RESIDUAL IS USED              9
     MAXIMUM EQUILIBRIUM ITERATIONS ALLOWED                                   16
     EQUILIBRIUM ITERATION COUNT FOR CUT-BACK IN NEXT INCREMENT               10
     MAXIMUM EQUILIB. ITERS IN TWO INCREMENTS FOR TIME INCREMENT INCREASE      4
     MAXIMUM ITERATIONS FOR SEVERE DISCONTINUITIES                            50
     MAXIMUM ATTEMPTS ALLOWED IN AN INCREMENT                                  5
     MAXIMUM DISCON. ITERS IN TWO INCREMENTS FOR TIME INCREMENT INCREASE      50
     MAXIMUM CONTACT AUGMENTATIONS FOR *SURFACE BEHAVIOR,AUGMENTED LAGRANGE   50
     CUT-BACK FACTOR AFTER DIVERGENCE                                 0.2500    
     CUT-BACK FACTOR FOR TOO SLOW CONVERGENCE                         0.5000    
     CUT-BACK FACTOR AFTER TOO MANY EQUILIBRIUM ITERATIONS            0.7500    
     CUT-BACK FACTOR AFTER TOO MANY SEVERE DISCONTINUITY ITERATIONS   0.2500    
     CUT-BACK FACTOR AFTER PROBLEMS IN ELEMENT ASSEMBLY               0.2500    
     INCREASE FACTOR AFTER TWO INCREMENTS THAT CONVERGE QUICKLY        1.500    
     MAX. TIME INCREMENT INCREASE FACTOR ALLOWED                       1.500    
     MAX. TIME INCREMENT INCREASE FACTOR ALLOWED (DYNAMICS)            1.250    
     MAX. TIME INCREMENT INCREASE FACTOR ALLOWED (DIFFUSION)           2.000    
     MINIMUM TIME INCREMENT RATIO FOR EXTRAPOLATION TO OCCUR          0.1000    
     MAX. RATIO OF TIME INCREMENT TO STABILITY LIMIT                   1.000    
     FRACTION OF STABILITY LIMIT FOR NEW TIME INCREMENT               0.9500    
     TIME INCREMENT INCREASE FACTOR BEFORE A TIME POINT                1.000    

 CONTACT CONTROLS APPLIED TO ALL CONTACT PAIRS:
     GLOBAL STABILIZATION CONTROL IS NOT USED
     RELATIVE PENETRATION TOLERANCE FOR AUGMENTED LAGRANGE CONTACT:
          FINITE-SLIDING SURFACE-TO-SURFACE                            5.000E-02
          OTHERWISE                                                    1.000E-03

          PRINT OF INCREMENT NUMBER, TIME, ETC., EVERY    1  INCREMENTS

     THE MAXIMUM NUMBER OF INCREMENTS IN THIS STEP IS                     100

          UNSYMMETRIC MATRIX STORAGE AND SOLUTION WILL BE USED

     LINEAR EXTRAPOLATION WILL BE USED

     CHARACTERISTIC ELEMENT LENGTH      2.62    

     DETAILS REGARDING ACTUAL SOLUTION WAVEFRONT REQUESTED

     DETAILED OUTPUT OF DIAGNOSTICS TO DATABASE REQUESTED

     PRINT OF INCREMENT NUMBER, TIME, ETC., TO THE MESSAGE FILE EVERY     1  INCREMENTS

     ELEMENT OPERATIONS WILL BE CARRIED OUT IN PARALLEL USING   6 PROCESSORS

     PARALLEL CONTACT TRACKING ENABLED


     COLLECTING MODEL CONSTRAINT INFORMATION FOR OVERCONSTRAINT CHECKS

     COLLECTING STEP CONSTRAINT INFORMATION FOR OVERCONSTRAINT CHECKS
  
     ASYNCHRONOUS OUTPUT DATABASE FRAME FLUSH STARTED
  


  INCREMENT     1 STARTS. ATTEMPT NUMBER  1, TIME INCREMENT   1.00    
  
     ASYNCHRONOUS TRACKING ELEMENT LOOP STARTED
  
 
     INITIAL ELEMENT LOAD BALANCE
            PROCESS    1   THREAD     NUMBER OF ELEMENTS
                              1            2871
                              2            2984
                              3            2816
                              4            3328
                              5            2816
                              6            3072

  NUMBER OF EQUATIONS =     32166     NUMBER OF RHS =    1
  NUMBER OF FLOATING PT. OPERATIONS =  1.14E+11

  USING THE DIRECT SOLVER WITH   6 PROCESSORS

     CHECK POINT   START OF SOLVER    

     CHECK POINT  END OF SOLVER       

       ELAPSED USER TIME (SEC)      =   15.100    
       ELAPSED SYSTEM TIME (SEC)    =  0.20000    
       ELAPSED TOTAL CPU TIME (SEC) =   15.300    
       ELAPSED WALLCLOCK TIME (SEC) =          2
 

 ***WARNING: SOLVER PROBLEM. NUMERICAL SINGULARITY WHEN PROCESSING NODE 
             ASSEMBLY.1 D.O.F. 6 RATIO = 123.928E+12  .
  
     ASYNCHRONOUS TRACKING ELEMENT LOOP STARTED
  

                 1432 SEVERE DISCONTINUITIES OCCURRED DURING THIS ITERATION.
                 1370 POINTS CHANGED FROM CLOSED TO OPEN
                   62 POINTS CHANGED FROM STICKING TO SLIPPING

               CONVERGENCE CHECKS FOR SEVERE DISCONTINUITY ITERATION     1

   MAX. PENETRATION ERROR 53.3765E-06  AT NODE BATTERY-1.211 OF CONTACT PAIR 
   (ASSEMBLY_BATTERY-1_BATBOT,ASSEMBLY_CF-1_CFTOP)
   MAX. CONTACT FORCE ERROR -1.18153     AT NODE BATTERY-1.3238 OF CONTACT PAIR 
   (ASSEMBLY_BATTERY-1_BATTOP,ASSEMBLY_CF-2_CFBOT)
          THE ESTIMATED CONTACT FORCE ERROR IS OUTSIDE OF CONVERGENCE TOLERANCES.

 AVERAGE FORCE                      0.167       TIME AVG. FORCE       0.167    
 LARGEST RESIDUAL FORCE              9.04       AT NODE        420   DOF  1
   INSTANCE: CF-1                                                                            
 LARGEST INCREMENT OF DISP.        -0.146       AT NODE        490   DOF  3
   INSTANCE: POLYMER-1                                                                       
 LARGEST CORRECTION TO DISP.       -0.146       AT NODE        490   DOF  3
   INSTANCE: POLYMER-1                                                                       
          FORCE     EQUILIBRIUM NOT ACHIEVED WITHIN TOLERANCE.

 AVERAGE MOMENT                     6.317E-02   TIME AVG. MOMENT      6.317E-02
 LARGEST RESIDUAL MOMENT             144.       AT NODE          1   DOF  6
   INSTANCE:                                                                                 
 LARGEST INCREMENT OF ROTATION      4.680E-03   AT NODE          4   DOF  5
   INSTANCE: CF-1                                                                            
 LARGEST CORRECTION TO ROTATION     4.680E-03   AT NODE          4   DOF  5
   INSTANCE: CF-1                                                                            
          MOMENT    EQUILIBRIUM NOT ACHIEVED WITHIN TOLERANCE.

  NUMBER OF EQUATIONS =     32166     NUMBER OF RHS =    1
  NUMBER OF FLOATING PT. OPERATIONS =  1.06E+11

  USING THE DIRECT SOLVER WITH   6 PROCESSORS

     CHECK POINT   START OF SOLVER    

     CHECK POINT  END OF SOLVER       

       ELAPSED USER TIME (SEC)      =   12.000    
       ELAPSED SYSTEM TIME (SEC)    =   0.0000    
       ELAPSED TOTAL CPU TIME (SEC) =   12.000    
       ELAPSED WALLCLOCK TIME (SEC) =          2
 

 ***WARNING: SOLVER PROBLEM. NUMERICAL SINGULARITY WHEN PROCESSING NODE 
             ASSEMBLY.1 D.O.F. 6 RATIO = 43.9741E+09 .
  
     ASYNCHRONOUS TRACKING ELEMENT LOOP STARTED
  

                 1660 SEVERE DISCONTINUITIES OCCURRED DURING THIS ITERATION.
                  587 POINTS CHANGED FROM OPEN TO CLOSED
                  681 POINTS CHANGED FROM CLOSED TO OPEN
                  392 POINTS CHANGED FROM STICKING TO SLIPPING

               CONVERGENCE CHECKS FOR SEVERE DISCONTINUITY ITERATION     2

   MAX. PENETRATION ERROR 2.54483E-03 AT NODE BATTERY-1.3027 OF CONTACT PAIR 
   (ASSEMBLY_BATTERY-1_BATTOP,ASSEMBLY_CF-2_CFBOT)
   MAX. CONTACT FORCE ERROR -2.23288     AT NODE BATTERY-1.2941 OF CONTACT PAIR 
   (ASSEMBLY_BATTERY-1_BATTOP,ASSEMBLY_CF-2_CFBOT)
          THE ESTIMATED CONTACT FORCE ERROR IS OUTSIDE OF CONVERGENCE TOLERANCES.

 AVERAGE FORCE                      0.193       TIME AVG. FORCE       0.193    
 LARGEST RESIDUAL FORCE              20.6       AT NODE          1   DOF  3
   INSTANCE:                                                                                 
 LARGEST INCREMENT OF DISP.          1.81       AT NODE          7   DOF  1
   INSTANCE: CF-1                                                                            
 LARGEST CORRECTION TO DISP.         1.81       AT NODE          7   DOF  1
   INSTANCE: CF-1                                                                            
          FORCE     EQUILIBRIUM NOT ACHIEVED WITHIN TOLERANCE.

 AVERAGE MOMENT                     0.128       TIME AVG. MOMENT      0.128    
 LARGEST RESIDUAL MOMENT             85.4       AT NODE          1   DOF  4
   INSTANCE:                                                                                 
 LARGEST INCREMENT OF ROTATION      1.668E-02   AT NODE         66   DOF  6
   INSTANCE: CF-1                                                                            
 LARGEST CORRECTION TO ROTATION     1.672E-02   AT NODE         66   DOF  6
   INSTANCE: CF-1                                                                            
          MOMENT    EQUILIBRIUM NOT ACHIEVED WITHIN TOLERANCE.

  NUMBER OF EQUATIONS =     32166     NUMBER OF RHS =    1
  NUMBER OF FLOATING PT. OPERATIONS =  1.01E+11

  USING THE DIRECT SOLVER WITH   6 PROCESSORS

     CHECK POINT   START OF SOLVER    

     CHECK POINT  END OF SOLVER       

       ELAPSED USER TIME (SEC)      =   11.700    
       ELAPSED SYSTEM TIME (SEC)    =   0.0000    
       ELAPSED TOTAL CPU TIME (SEC) =   11.700    
       ELAPSED WALLCLOCK TIME (SEC) =          2
 

 ***WARNING: SOLVER PROBLEM. NUMERICAL SINGULARITY WHEN PROCESSING NODE 
             ASSEMBLY.1 D.O.F. 6 RATIO = 10.7261E+09 .
  
     ASYNCHRONOUS TRACKING ELEMENT LOOP STARTED
  

                  900 SEVERE DISCONTINUITIES OCCURRED DURING THIS ITERATION.
                  206 POINTS CHANGED FROM OPEN TO CLOSED
                  552 POINTS CHANGED FROM CLOSED TO OPEN
                  142 POINTS CHANGED FROM STICKING TO SLIPPING

               CONVERGENCE CHECKS FOR SEVERE DISCONTINUITY ITERATION     3

   MAX. PENETRATION ERROR 377.902E-06   AT NODE BATTERY-1.465 OF CONTACT PAIR 
   (ASSEMBLY_BATTERY-1_BATBOT,ASSEMBLY_CF-1_CFTOP)
   MAX. CONTACT FORCE ERROR -1.31874     AT NODE BATTERY-1.3482 OF CONTACT PAIR 
   (ASSEMBLY_BATTERY-1_BATTOP,ASSEMBLY_CF-2_CFBOT)
          THE ESTIMATED CONTACT FORCE ERROR IS OUTSIDE OF CONVERGENCE TOLERANCES.

 AVERAGE FORCE                      0.194       TIME AVG. FORCE       0.194    
 LARGEST RESIDUAL FORCE              4.52       AT NODE          1   DOF  3
   INSTANCE:                                                                                 
 LARGEST INCREMENT OF DISP.        -0.242       AT NODE          2   DOF  3
   INSTANCE: CF-2                                                                            
 LARGEST CORRECTION TO DISP.         1.71       AT NODE         94   DOF  2
   INSTANCE: CF-1                                                                            
          FORCE     EQUILIBRIUM NOT ACHIEVED WITHIN TOLERANCE.

 AVERAGE MOMENT                     0.135       TIME AVG. MOMENT      0.135    
 LARGEST RESIDUAL MOMENT             38.4       AT NODE          1   DOF  4
   INSTANCE:                                                                                 
 LARGEST INCREMENT OF ROTATION      8.182E-03   AT NODE          3   DOF  5
   INSTANCE: CF-1                                                                            
 LARGEST CORRECTION TO ROTATION    -1.560E-02   AT NODE         93   DOF  6
   INSTANCE: CF-1                                                                            
          MOMENT    EQUILIBRIUM NOT ACHIEVED WITHIN TOLERANCE.

  NUMBER OF EQUATIONS =     32166     NUMBER OF RHS =    1
  NUMBER OF FLOATING PT. OPERATIONS =  9.48E+10

  USING THE DIRECT SOLVER WITH   6 PROCESSORS

     CHECK POINT   START OF SOLVER    

     CHECK POINT  END OF SOLVER       

       ELAPSED USER TIME (SEC)      =   11.300    
       ELAPSED SYSTEM TIME (SEC)    =   0.0000    
       ELAPSED TOTAL CPU TIME (SEC) =   11.300    
       ELAPSED WALLCLOCK TIME (SEC) =          2
 

 ***WARNING: SOLVER PROBLEM. NUMERICAL SINGULARITY WHEN PROCESSING NODE 
             ASSEMBLY.1 D.O.F. 6 RATIO = 9.91959E+09.
  
     ASYNCHRONOUS TRACKING ELEMENT LOOP STARTED
  

                  561 SEVERE DISCONTINUITIES OCCURRED DURING THIS ITERATION.
                  131 POINTS CHANGED FROM OPEN TO CLOSED
                  351 POINTS CHANGED FROM CLOSED TO OPEN
                    2 POINTS CHANGED FROM SLIPPING TO STICKING
                   77 POINTS CHANGED FROM STICKING TO SLIPPING

               CONVERGENCE CHECKS FOR SEVERE DISCONTINUITY ITERATION     4

   MAX. PENETRATION ERROR 238.121E-06   AT NODE BATTERY-1.3909 OF CONTACT PAIR 
   (ASSEMBLY_BATTERY-1_BATTOP,ASSEMBLY_CF-2_CFBOT)
   MAX. CONTACT FORCE ERROR -1.07007     AT NODE BATTERY-1.3617 OF CONTACT PAIR 
   (ASSEMBLY_BATTERY-1_BATTOP,ASSEMBLY_CF-2_CFBOT)
          THE ESTIMATED CONTACT FORCE ERROR IS OUTSIDE OF CONVERGENCE TOLERANCES.

 AVERAGE FORCE                      0.194       TIME AVG. FORCE       0.194    
 LARGEST RESIDUAL FORCE            -0.673       AT NODE       3628   DOF  3
   INSTANCE: BATTERY-1                                                                       
 LARGEST INCREMENT OF DISP.        -0.243       AT NODE          2   DOF  3
   INSTANCE: CF-2                                                                            
 LARGEST CORRECTION TO DISP.        8.133E-02   AT NODE        167   DOF  1
   INSTANCE: CF-1                                                                            
          FORCE     EQUILIBRIUM NOT ACHIEVED WITHIN TOLERANCE.

 AVERAGE MOMENT                     0.137       TIME AVG. MOMENT      0.137    
 LARGEST RESIDUAL MOMENT             3.73       AT NODE          1   DOF  4
   INSTANCE:                                                                                 
 LARGEST INCREMENT OF ROTATION      8.337E-03   AT NODE        598   DOF  5
   INSTANCE: CF-2                                                                            
 LARGEST CORRECTION TO ROTATION     7.430E-04   AT NODE        723   DOF  6
   INSTANCE: CF-1                                                                            
          MOMENT    EQUILIBRIUM NOT ACHIEVED WITHIN TOLERANCE.

  NUMBER OF EQUATIONS =     32166     NUMBER OF RHS =    1
  NUMBER OF FLOATING PT. OPERATIONS =  8.96E+10

  USING THE DIRECT SOLVER WITH   6 PROCESSORS

     CHECK POINT   START OF SOLVER    

     CHECK POINT  END OF SOLVER       

       ELAPSED USER TIME (SEC)      =   10.700    
       ELAPSED SYSTEM TIME (SEC)    =   0.0000    
       ELAPSED TOTAL CPU TIME (SEC) =   10.700    
       ELAPSED WALLCLOCK TIME (SEC) =          2
 

 ***WARNING: SOLVER PROBLEM. NUMERICAL SINGULARITY WHEN PROCESSING NODE 
             ASSEMBLY.1 D.O.F. 6 RATIO = 10.7948E+09 .
  
     ASYNCHRONOUS TRACKING ELEMENT LOOP STARTED
  

                  422 SEVERE DISCONTINUITIES OCCURRED DURING THIS ITERATION.
                  122 POINTS CHANGED FROM OPEN TO CLOSED
                  216 POINTS CHANGED FROM CLOSED TO OPEN
                    1 POINTS CHANGED FROM SLIPPING TO STICKING
                   83 POINTS CHANGED FROM STICKING TO SLIPPING

               CONVERGENCE CHECKS FOR SEVERE DISCONTINUITY ITERATION     5

   MAX. PENETRATION ERROR 415.308E-06   AT NODE BATTERY-1.3989 OF CONTACT PAIR 
   (ASSEMBLY_BATTERY-1_BATTOP,ASSEMBLY_CF-2_CFBOT)
   MAX. CONTACT FORCE ERROR -826.574E-03   AT NODE BATTERY-1.3691 OF CONTACT 
   PAIR (ASSEMBLY_BATTERY-1_BATTOP,ASSEMBLY_CF-2_CFBOT)
          THE ESTIMATED CONTACT FORCE ERROR IS OUTSIDE OF CONVERGENCE TOLERANCES.

 AVERAGE FORCE                      0.193       TIME AVG. FORCE       0.193    
 LARGEST RESIDUAL FORCE             0.512       AT NODE        525   DOF  3
   INSTANCE: CF-2                                                                            
 LARGEST INCREMENT OF DISP.        -0.244       AT NODE          2   DOF  3
   INSTANCE: CF-2                                                                            
 LARGEST CORRECTION TO DISP.        4.868E-02   AT NODE         93   DOF  2
   INSTANCE: CF-1                                                                            
          FORCE     EQUILIBRIUM NOT ACHIEVED WITHIN TOLERANCE.

 AVERAGE MOMENT                     0.138       TIME AVG. MOMENT      0.138    
 LARGEST RESIDUAL MOMENT           -5.582E-03   AT NODE       1141   DOF  5
   INSTANCE: CF-2                                                                            
 LARGEST INCREMENT OF ROTATION      8.530E-03   AT NODE        597   DOF  5
   INSTANCE: CF-2                                                                            
 LARGEST CORRECTION TO ROTATION     6.142E-04   AT NODE        561   DOF  5
   INSTANCE: CF-2                                                                            
          MOMENT    EQUILIBRIUM NOT ACHIEVED WITHIN TOLERANCE.

  NUMBER OF EQUATIONS =     32166     NUMBER OF RHS =    1
  NUMBER OF FLOATING PT. OPERATIONS =  9.16E+10

  USING THE DIRECT SOLVER WITH   6 PROCESSORS

     CHECK POINT   START OF SOLVER    

     CHECK POINT  END OF SOLVER       

       ELAPSED USER TIME (SEC)      =   10.500    
       ELAPSED SYSTEM TIME (SEC)    =  0.10000    
       ELAPSED TOTAL CPU TIME (SEC) =   10.600    
       ELAPSED WALLCLOCK TIME (SEC) =          2
 

 ***WARNING: SOLVER PROBLEM. NUMERICAL SINGULARITY WHEN PROCESSING NODE 
             ASSEMBLY.1 D.O.F. 6 RATIO = 11.5007E+09 .
  
     ASYNCHRONOUS TRACKING ELEMENT LOOP STARTED
  

                  462 SEVERE DISCONTINUITIES OCCURRED DURING THIS ITERATION.
                  184 POINTS CHANGED FROM OPEN TO CLOSED
                  159 POINTS CHANGED FROM CLOSED TO OPEN
                  119 POINTS CHANGED FROM STICKING TO SLIPPING

               CONVERGENCE CHECKS FOR SEVERE DISCONTINUITY ITERATION     6

   MAX. PENETRATION ERROR 690.482E-06   AT NODE BATTERY-1.4024 OF CONTACT PAIR 
   (ASSEMBLY_BATTERY-1_BATTOP,ASSEMBLY_CF-2_CFBOT)
   MAX. CONTACT FORCE ERROR -983.148E-03   AT NODE BATTERY-1.3810 OF CONTACT 
   PAIR (ASSEMBLY_BATTERY-1_BATTOP,ASSEMBLY_CF-2_CFBOT)
          THE ESTIMATED CONTACT FORCE ERROR IS OUTSIDE OF CONVERGENCE TOLERANCES.

 AVERAGE FORCE                      0.193       TIME AVG. FORCE       0.193    
 LARGEST RESIDUAL FORCE            -0.573       AT NODE       3810   DOF  3
   INSTANCE: BATTERY-1                                                                       
 LARGEST INCREMENT OF DISP.        -0.244       AT NODE          2   DOF  3
   INSTANCE: CF-2                                                                            
 LARGEST CORRECTION TO DISP.        3.820E-02   AT NODE        102   DOF  1
   INSTANCE: CF-2                                                                            
          FORCE     EQUILIBRIUM NOT ACHIEVED WITHIN TOLERANCE.

 AVERAGE MOMENT                     0.139       TIME AVG. MOMENT      0.139    
 LARGEST RESIDUAL MOMENT            5.163E-03   AT NODE          1   DOF  4
   INSTANCE:                                                                                 
 LARGEST INCREMENT OF ROTATION      8.845E-03   AT NODE        561   DOF  5
   INSTANCE: CF-2                                                                            
 LARGEST CORRECTION TO ROTATION     6.715E-04   AT NODE        526   DOF  5
   INSTANCE: CF-2                                                                            
          MOMENT    EQUILIBRIUM NOT ACHIEVED WITHIN TOLERANCE.

  NUMBER OF EQUATIONS =     32166     NUMBER OF RHS =    1
  NUMBER OF FLOATING PT. OPERATIONS =  8.96E+10

  USING THE DIRECT SOLVER WITH   6 PROCESSORS

     CHECK POINT   START OF SOLVER    

     CHECK POINT  END OF SOLVER       

       ELAPSED USER TIME (SEC)      =   10.500    
       ELAPSED SYSTEM TIME (SEC)    =   0.0000    
       ELAPSED TOTAL CPU TIME (SEC) =   10.500    
       ELAPSED WALLCLOCK TIME (SEC) =          1
 

 ***WARNING: SOLVER PROBLEM. NUMERICAL SINGULARITY WHEN PROCESSING NODE 
             ASSEMBLY.1 D.O.F. 6 RATIO = 12.0209E+09 .
  
     ASYNCHRONOUS TRACKING ELEMENT LOOP STARTED
  

                  325 SEVERE DISCONTINUITIES OCCURRED DURING THIS ITERATION.
                   90 POINTS CHANGED FROM OPEN TO CLOSED
                  172 POINTS CHANGED FROM CLOSED TO OPEN
                   63 POINTS CHANGED FROM STICKING TO SLIPPING

               CONVERGENCE CHECKS FOR SEVERE DISCONTINUITY ITERATION     7

   MAX. PENETRATION ERROR 353.931E-06   AT NODE BATTERY-1.3993 OF CONTACT PAIR 
   (ASSEMBLY_BATTERY-1_BATTOP,ASSEMBLY_CF-2_CFBOT)
   MAX. CONTACT FORCE ERROR -748.644E-03   AT NODE BATTERY-1.3979 OF CONTACT 
   PAIR (ASSEMBLY_BATTERY-1_BATTOP,ASSEMBLY_CF-2_CFBOT)
          THE ESTIMATED CONTACT FORCE ERROR IS OUTSIDE OF CONVERGENCE TOLERANCES.

 AVERAGE FORCE                      0.193       TIME AVG. FORCE       0.193    
 LARGEST RESIDUAL FORCE             0.514       AT NODE        490   DOF  3
   INSTANCE: CF-2                                                                            
 LARGEST INCREMENT OF DISP.        -0.244       AT NODE          2   DOF  3
   INSTANCE: CF-2                                                                            
 LARGEST CORRECTION TO DISP.        5.579E-02   AT NODE         94   DOF  2
   INSTANCE: CF-1                                                                            
          FORCE     EQUILIBRIUM NOT ACHIEVED WITHIN TOLERANCE.

 AVERAGE MOMENT                     0.140       TIME AVG. MOMENT      0.140    
 LARGEST RESIDUAL MOMENT           -0.145       AT NODE          1   DOF  4
   INSTANCE:                                                                                 
 LARGEST INCREMENT OF ROTATION      8.888E-03   AT NODE        562   DOF  5
   INSTANCE: CF-2                                                                            
 LARGEST CORRECTION TO ROTATION     5.713E-04   AT NODE        494   DOF  5
   INSTANCE: CF-2                                                                            
          MOMENT    EQUILIBRIUM NOT ACHIEVED WITHIN TOLERANCE.

  NUMBER OF EQUATIONS =     32166     NUMBER OF RHS =    1
  NUMBER OF FLOATING PT. OPERATIONS =  8.48E+10

  USING THE DIRECT SOLVER WITH   6 PROCESSORS

     CHECK POINT   START OF SOLVER    

     CHECK POINT  END OF SOLVER       

       ELAPSED USER TIME (SEC)      =   10.100    
       ELAPSED SYSTEM TIME (SEC)    =   0.0000    
       ELAPSED TOTAL CPU TIME (SEC) =   10.100    
       ELAPSED WALLCLOCK TIME (SEC) =          2
 

 ***WARNING: SOLVER PROBLEM. NUMERICAL SINGULARITY WHEN PROCESSING NODE 
             ASSEMBLY.1 D.O.F. 6 RATIO = 12.3864E+09 .
  
     ASYNCHRONOUS TRACKING ELEMENT LOOP STARTED
  

                  215 SEVERE DISCONTINUITIES OCCURRED DURING THIS ITERATION.
                   57 POINTS CHANGED FROM OPEN TO CLOSED
                  129 POINTS CHANGED FROM CLOSED TO OPEN
                   29 POINTS CHANGED FROM STICKING TO SLIPPING

               CONVERGENCE CHECKS FOR SEVERE DISCONTINUITY ITERATION     8

   MAX. PENETRATION ERROR 178.214E-06   AT NODE BATTERY-1.3897 OF CONTACT PAIR 
   (ASSEMBLY_BATTERY-1_BATTOP,ASSEMBLY_CF-2_CFBOT)
   MAX. CONTACT FORCE ERROR -840.676E-03   AT NODE BATTERY-1.4146 OF CONTACT 
   PAIR (ASSEMBLY_BATTERY-1_BATTOP,ASSEMBLY_CF-2_CFBOT)
          THE ESTIMATED CONTACT FORCE ERROR IS OUTSIDE OF CONVERGENCE TOLERANCES.

 AVERAGE FORCE                      0.193       TIME AVG. FORCE       0.193    
 LARGEST RESIDUAL FORCE            -0.482       AT NODE       4146   DOF  3
   INSTANCE: BATTERY-1                                                                       
 LARGEST INCREMENT OF DISP.        -0.244       AT NODE          2   DOF  3
   INSTANCE: CF-2                                                                            
 LARGEST CORRECTION TO DISP.        4.915E-02   AT NODE          4   DOF  1
   INSTANCE: CF-2                                                                            
          FORCE     EQUILIBRIUM NOT ACHIEVED WITHIN TOLERANCE.

 AVERAGE MOMENT                     0.140       TIME AVG. MOMENT      0.140    
 LARGEST RESIDUAL MOMENT           -4.359E-04   AT NODE          1   DOF  6
   INSTANCE:                                                                                 
 LARGEST INCREMENT OF ROTATION      8.940E-03   AT NODE        526   DOF  5
   INSTANCE: CF-2                                                                            
 LARGEST CORRECTION TO ROTATION     5.971E-04   AT NODE        490   DOF  5
   INSTANCE: CF-2                                                                            
 ESTIMATE OF ROTATION CORRECTION   -5.042E-05
 MOMENT    EQUILIB. ACCEPTED BASED ON SMALL RESIDUAL AND ESTIMATED CORRECTION

  NUMBER OF EQUATIONS =     32166     NUMBER OF RHS =    1
  NUMBER OF FLOATING PT. OPERATIONS =  8.30E+10

  USING THE DIRECT SOLVER WITH   6 PROCESSORS

     CHECK POINT   START OF SOLVER    

     CHECK POINT  END OF SOLVER       

       ELAPSED USER TIME (SEC)      =   9.8000    
       ELAPSED SYSTEM TIME (SEC)    =   0.0000    
       ELAPSED TOTAL CPU TIME (SEC) =   9.8000    
       ELAPSED WALLCLOCK TIME (SEC) =          2
 

 ***WARNING: SOLVER PROBLEM. NUMERICAL SINGULARITY WHEN PROCESSING NODE 
             ASSEMBLY.1 D.O.F. 6 RATIO = 13.0157E+09 .
  
     ASYNCHRONOUS TRACKING ELEMENT LOOP STARTED
  

                  273 SEVERE DISCONTINUITIES OCCURRED DURING THIS ITERATION.
                  101 POINTS CHANGED FROM OPEN TO CLOSED
                  108 POINTS CHANGED FROM CLOSED TO OPEN
                   64 POINTS CHANGED FROM STICKING TO SLIPPING

               CONVERGENCE CHECKS FOR SEVERE DISCONTINUITY ITERATION     9

   MAX. PENETRATION ERROR 325.853E-06   AT NODE BATTERY-1.3727 OF CONTACT PAIR 
   (ASSEMBLY_BATTERY-1_BATTOP,ASSEMBLY_CF-2_CFBOT)
   MAX. CONTACT FORCE ERROR -866.598E-03   AT NODE BATTERY-1.4023 OF CONTACT 
   PAIR (ASSEMBLY_BATTERY-1_BATTOP,ASSEMBLY_CF-2_CFBOT)
          THE ESTIMATED CONTACT FORCE ERROR IS OUTSIDE OF CONVERGENCE TOLERANCES.

 AVERAGE FORCE                      0.193       TIME AVG. FORCE       0.193    
 LARGEST RESIDUAL FORCE            -0.493       AT NODE       4023   DOF  3
   INSTANCE: BATTERY-1                                                                       
 LARGEST INCREMENT OF DISP.        -0.245       AT NODE          2   DOF  3
   INSTANCE: CF-2                                                                            
 LARGEST CORRECTION TO DISP.        3.229E-03   AT NODE        525   DOF  3
   INSTANCE: CF-2                                                                            
          FORCE     EQUILIBRIUM NOT ACHIEVED WITHIN TOLERANCE.

 AVERAGE MOMENT                     0.140       TIME AVG. MOMENT      0.140    
 LARGEST RESIDUAL MOMENT           -7.188E-03   AT NODE          1   DOF  4
   INSTANCE:                                                                                 
 LARGEST INCREMENT OF ROTATION      8.953E-03   AT NODE        527   DOF  5
   INSTANCE: CF-2                                                                            
 LARGEST CORRECTION TO ROTATION     5.564E-04   AT NODE        417   DOF  5
   INSTANCE: CF-2                                                                            
          MOMENT    EQUILIBRIUM NOT ACHIEVED WITHIN TOLERANCE.

  NUMBER OF EQUATIONS =     32166     NUMBER OF RHS =    1
  NUMBER OF FLOATING PT. OPERATIONS =  8.15E+10

  USING THE DIRECT SOLVER WITH   6 PROCESSORS

     CHECK POINT   START OF SOLVER    

     CHECK POINT  END OF SOLVER       

       ELAPSED USER TIME (SEC)      =   9.8000    
       ELAPSED SYSTEM TIME (SEC)    =   0.0000    
       ELAPSED TOTAL CPU TIME (SEC) =   9.8000    
       ELAPSED WALLCLOCK TIME (SEC) =          2
 

 ***WARNING: SOLVER PROBLEM. NUMERICAL SINGULARITY WHEN PROCESSING NODE 
             ASSEMBLY.1 D.O.F. 6 RATIO = 13.5911E+09 .
  
     ASYNCHRONOUS TRACKING ELEMENT LOOP STARTED
  

                  173 SEVERE DISCONTINUITIES OCCURRED DURING THIS ITERATION.
                   52 POINTS CHANGED FROM OPEN TO CLOSED
                  106 POINTS CHANGED FROM CLOSED TO OPEN
                   15 POINTS CHANGED FROM STICKING TO SLIPPING

               CONVERGENCE CHECKS FOR SEVERE DISCONTINUITY ITERATION    10

   MAX. PENETRATION ERROR 254.385E-06   AT NODE BATTERY-1.3517 OF CONTACT PAIR 
   (ASSEMBLY_BATTERY-1_BATTOP,ASSEMBLY_CF-2_CFBOT)
   MAX. CONTACT FORCE ERROR -594.313E-03   AT NODE BATTERY-1.3969 OF CONTACT 
   PAIR (ASSEMBLY_BATTERY-1_BATTOP,ASSEMBLY_CF-2_CFBOT)
          THE ESTIMATED CONTACT FORCE ERROR IS OUTSIDE OF CONVERGENCE TOLERANCES.

 AVERAGE FORCE                      0.193       TIME AVG. FORCE       0.193    
 LARGEST RESIDUAL FORCE             0.359       AT NODE        385   DOF  3
   INSTANCE: CF-2                                                                            
 LARGEST INCREMENT OF DISP.        -0.245       AT NODE          2   DOF  3
   INSTANCE: CF-2                                                                            
 LARGEST CORRECTION TO DISP.        6.697E-03   AT NODE        101   DOF  1
   INSTANCE: CF-2                                                                            
          FORCE     EQUILIBRIUM NOT ACHIEVED WITHIN TOLERANCE.

 AVERAGE MOMENT                     0.141       TIME AVG. MOMENT      0.141    
 LARGEST RESIDUAL MOMENT            0.191       AT NODE          1   DOF  4
   INSTANCE:                                                                                 
 LARGEST INCREMENT OF ROTATION      8.833E-03   AT NODE        527   DOF  5
   INSTANCE: CF-2                                                                            
 LARGEST CORRECTION TO ROTATION     6.535E-04   AT NODE        418   DOF  5
   INSTANCE: CF-2                                                                            
          MOMENT    EQUILIBRIUM NOT ACHIEVED WITHIN TOLERANCE.

  NUMBER OF EQUATIONS =     32166     NUMBER OF RHS =    1
  NUMBER OF FLOATING PT. OPERATIONS =  8.38E+10

  USING THE DIRECT SOLVER WITH   6 PROCESSORS

     CHECK POINT   START OF SOLVER    

     CHECK POINT  END OF SOLVER       

       ELAPSED USER TIME (SEC)      =   10.100    
       ELAPSED SYSTEM TIME (SEC)    =   0.0000    
       ELAPSED TOTAL CPU TIME (SEC) =   10.100    
       ELAPSED WALLCLOCK TIME (SEC) =          2
 

 ***WARNING: SOLVER PROBLEM. NUMERICAL SINGULARITY WHEN PROCESSING NODE 
             ASSEMBLY.1 D.O.F. 6 RATIO = 13.9390E+09 .
  
     ASYNCHRONOUS TRACKING ELEMENT LOOP STARTED
  

                  152 SEVERE DISCONTINUITIES OCCURRED DURING THIS ITERATION.
                   55 POINTS CHANGED FROM OPEN TO CLOSED
                   86 POINTS CHANGED FROM CLOSED TO OPEN
                    1 POINTS CHANGED FROM SLIPPING TO STICKING
                   10 POINTS CHANGED FROM STICKING TO SLIPPING

               CONVERGENCE CHECKS FOR SEVERE DISCONTINUITY ITERATION    11

   MAX. PENETRATION ERROR 228.534E-06   AT NODE BATTERY-1.3503 OF CONTACT PAIR 
   (ASSEMBLY_BATTERY-1_BATTOP,ASSEMBLY_CF-2_CFBOT)
   MAX. CONTACT FORCE ERROR -578.288E-03   AT NODE BATTERY-1.3836 OF CONTACT 
   PAIR (ASSEMBLY_BATTERY-1_BATTOP,ASSEMBLY_CF-2_CFBOT)
          THE ESTIMATED CONTACT FORCE ERROR IS OUTSIDE OF CONVERGENCE TOLERANCES.

 AVERAGE FORCE                      0.193       TIME AVG. FORCE       0.193    
 LARGEST RESIDUAL FORCE            -0.360       AT NODE       3836   DOF  3
   INSTANCE: BATTERY-1                                                                       
 LARGEST INCREMENT OF DISP.        -0.245       AT NODE          2   DOF  3
   INSTANCE: CF-2                                                                            
 LARGEST CORRECTION TO DISP.        3.725E-02   AT NODE        102   DOF  1
   INSTANCE: CF-2                                                                            
          FORCE     EQUILIBRIUM NOT ACHIEVED WITHIN TOLERANCE.

 AVERAGE MOMENT                     0.141       TIME AVG. MOMENT      0.141    
 LARGEST RESIDUAL MOMENT           -5.752E-04   AT NODE          1   DOF  6
   INSTANCE:                                                                                 
 LARGEST INCREMENT OF ROTATION      8.807E-03   AT NODE        491   DOF  5
   INSTANCE: CF-2                                                                            
 LARGEST CORRECTION TO ROTATION     3.952E-04   AT NODE        392   DOF  5
   INSTANCE: CF-2                                                                            
 ESTIMATE OF ROTATION CORRECTION    3.162E-05
 MOMENT    EQUILIB. ACCEPTED BASED ON SMALL RESIDUAL AND ESTIMATED CORRECTION

  NUMBER OF EQUATIONS =     32166     NUMBER OF RHS =    1
  NUMBER OF FLOATING PT. OPERATIONS =  7.96E+10

  USING THE DIRECT SOLVER WITH   6 PROCESSORS

     CHECK POINT   START OF SOLVER    

     CHECK POINT  END OF SOLVER       

       ELAPSED USER TIME (SEC)      =   9.2000    
       ELAPSED SYSTEM TIME (SEC)    =  0.10000    
       ELAPSED TOTAL CPU TIME (SEC) =   9.3000    
       ELAPSED WALLCLOCK TIME (SEC) =          1
 

 ***WARNING: SOLVER PROBLEM. NUMERICAL SINGULARITY WHEN PROCESSING NODE 
             ASSEMBLY.1 D.O.F. 6 RATIO = 14.4915E+09 .
  
     ASYNCHRONOUS TRACKING ELEMENT LOOP STARTED
  

                  107 SEVERE DISCONTINUITIES OCCURRED DURING THIS ITERATION.
                   24 POINTS CHANGED FROM OPEN TO CLOSED
                   81 POINTS CHANGED FROM CLOSED TO OPEN
                    2 POINTS CHANGED FROM STICKING TO SLIPPING

               CONVERGENCE CHECKS FOR SEVERE DISCONTINUITY ITERATION    12

   MAX. PENETRATION ERROR 323.530E-06   AT NODE BATTERY-1.3883 OF CONTACT PAIR 
   (ASSEMBLY_BATTERY-1_BATTOP,ASSEMBLY_CF-2_CFBOT)
   MAX. CONTACT FORCE ERROR -538.227E-03   AT NODE BATTERY-1.4197 OF CONTACT 
   PAIR (ASSEMBLY_BATTERY-1_BATTOP,ASSEMBLY_CF-2_CFBOT)
          THE ESTIMATED CONTACT FORCE ERROR IS OUTSIDE OF CONVERGENCE TOLERANCES.

 AVERAGE FORCE                      0.193       TIME AVG. FORCE       0.193    
 LARGEST RESIDUAL FORCE            -0.317       AT NODE       4137   DOF  3
   INSTANCE: BATTERY-1                                                                       
 LARGEST INCREMENT OF DISP.        -0.245       AT NODE          2   DOF  3
   INSTANCE: CF-2                                                                            
 LARGEST CORRECTION TO DISP.        4.795E-02   AT NODE         94   DOF  2
   INSTANCE: CF-1                                                                            
          FORCE     EQUILIBRIUM NOT ACHIEVED WITHIN TOLERANCE.

 AVERAGE MOMENT                     0.140       TIME AVG. MOMENT      0.140    
 LARGEST RESIDUAL MOMENT           -1.692E-03   AT NODE          1   DOF  6
   INSTANCE:                                                                                 
 LARGEST INCREMENT OF ROTATION      8.756E-03   AT NODE        491   DOF  5
   INSTANCE: CF-2                                                                            
 LARGEST CORRECTION TO ROTATION     4.554E-04   AT NODE        356   DOF  5
   INSTANCE: CF-2                                                                            
          MOMENT    EQUILIBRIUM NOT ACHIEVED WITHIN TOLERANCE.

  NUMBER OF EQUATIONS =     32166     NUMBER OF RHS =    1
  NUMBER OF FLOATING PT. OPERATIONS =  8.24E+10

  USING THE DIRECT SOLVER WITH   6 PROCESSORS

     CHECK POINT   START OF SOLVER    

     CHECK POINT  END OF SOLVER       

       ELAPSED USER TIME (SEC)      =   9.7000    
       ELAPSED SYSTEM TIME (SEC)    =   0.0000    
       ELAPSED TOTAL CPU TIME (SEC) =   9.7000    
       ELAPSED WALLCLOCK TIME (SEC) =          2
 

 ***WARNING: SOLVER PROBLEM. NUMERICAL SINGULARITY WHEN PROCESSING NODE 
             ASSEMBLY.1 D.O.F. 6 RATIO = 14.9738E+09 .
  
     ASYNCHRONOUS TRACKING ELEMENT LOOP STARTED
  

                   91 SEVERE DISCONTINUITIES OCCURRED DURING THIS ITERATION.
                   32 POINTS CHANGED FROM OPEN TO CLOSED
                   58 POINTS CHANGED FROM CLOSED TO OPEN
                    1 POINTS CHANGED FROM STICKING TO SLIPPING

               CONVERGENCE CHECKS FOR SEVERE DISCONTINUITY ITERATION    13

   MAX. PENETRATION ERROR 120.461E-06   AT NODE BATTERY-1.4026 OF CONTACT PAIR 
   (ASSEMBLY_BATTERY-1_BATTOP,ASSEMBLY_CF-2_CFBOT)
   MAX. CONTACT FORCE ERROR -740.234E-03   AT NODE BATTERY-1.4190 OF CONTACT 
   PAIR (ASSEMBLY_BATTERY-1_BATTOP,ASSEMBLY_CF-2_CFBOT)
          THE ESTIMATED CONTACT FORCE ERROR IS OUTSIDE OF CONVERGENCE TOLERANCES.

 AVERAGE FORCE                      0.193       TIME AVG. FORCE       0.193    
 LARGEST RESIDUAL FORCE            -0.430       AT NODE       4190   DOF  3
   INSTANCE: BATTERY-1                                                                       
 LARGEST INCREMENT OF DISP.        -0.245       AT NODE          2   DOF  3
   INSTANCE: CF-2                                                                            
 LARGEST CORRECTION TO DISP.        2.975E-02   AT NODE        102   DOF  1
   INSTANCE: CF-2                                                                            
          FORCE     EQUILIBRIUM NOT ACHIEVED WITHIN TOLERANCE.

 AVERAGE MOMENT                     0.140       TIME AVG. MOMENT      0.140    
 LARGEST RESIDUAL MOMENT           -2.620E-02   AT NODE          1   DOF  4
   INSTANCE:                                                                                 
 LARGEST INCREMENT OF ROTATION      8.669E-03   AT NODE        491   DOF  5
   INSTANCE: CF-2                                                                            
 LARGEST CORRECTION TO ROTATION     4.233E-04   AT NODE        319   DOF  5
   INSTANCE: CF-2                                                                            
          MOMENT    EQUILIBRIUM NOT ACHIEVED WITHIN TOLERANCE.

  NUMBER OF EQUATIONS =     32166     NUMBER OF RHS =    1
  NUMBER OF FLOATING PT. OPERATIONS =  7.84E+10

  USING THE DIRECT SOLVER WITH   6 PROCESSORS

     CHECK POINT   START OF SOLVER    

     CHECK POINT  END OF SOLVER       

       ELAPSED USER TIME (SEC)      =   9.2000    
       ELAPSED SYSTEM TIME (SEC)    =   0.0000    
       ELAPSED TOTAL CPU TIME (SEC) =   9.2000    
       ELAPSED WALLCLOCK TIME (SEC) =          1
 

 ***WARNING: SOLVER PROBLEM. NUMERICAL SINGULARITY WHEN PROCESSING NODE 
             ASSEMBLY.1 D.O.F. 6 RATIO = 15.4735E+09 .
  
     ASYNCHRONOUS TRACKING ELEMENT LOOP STARTED
  

                   77 SEVERE DISCONTINUITIES OCCURRED DURING THIS ITERATION.
                   26 POINTS CHANGED FROM OPEN TO CLOSED
                   51 POINTS CHANGED FROM CLOSED TO OPEN

               CONVERGENCE CHECKS FOR SEVERE DISCONTINUITY ITERATION    14

   MAX. PENETRATION ERROR 184.368E-06   AT NODE BATTERY-1.3514 OF CONTACT PAIR 
   (ASSEMBLY_BATTERY-1_BATTOP,ASSEMBLY_CF-2_CFBOT)
   MAX. CONTACT FORCE ERROR -418.673E-03   AT NODE BATTERY-1.4167 OF CONTACT 
   PAIR (ASSEMBLY_BATTERY-1_BATTOP,ASSEMBLY_CF-2_CFBOT)
          THE ESTIMATED CONTACT FORCE ERROR IS OUTSIDE OF CONVERGENCE TOLERANCES.

 AVERAGE FORCE                      0.193       TIME AVG. FORCE       0.193    
 LARGEST RESIDUAL FORCE             0.315       AT NODE        275   DOF  3
   INSTANCE: CF-2                                                                            
 LARGEST INCREMENT OF DISP.        -0.245       AT NODE          2   DOF  3
   INSTANCE: CF-2                                                                            
 LARGEST CORRECTION TO DISP.        4.300E-02   AT NODE         93   DOF  2
   INSTANCE: CF-1                                                                            
          FORCE     EQUILIBRIUM NOT ACHIEVED WITHIN TOLERANCE.

 AVERAGE MOMENT                     0.140       TIME AVG. MOMENT      0.140    
 LARGEST RESIDUAL MOMENT           -9.182E-02   AT NODE          1   DOF  4
   INSTANCE:                                                                                 
 LARGEST INCREMENT OF ROTATION      8.553E-03   AT NODE        491   DOF  5
   INSTANCE: CF-2                                                                            
 LARGEST CORRECTION TO ROTATION     4.021E-04   AT NODE        311   DOF  5
   INSTANCE: CF-2                                                                            
          MOMENT    EQUILIBRIUM NOT ACHIEVED WITHIN TOLERANCE.

  NUMBER OF EQUATIONS =     32166     NUMBER OF RHS =    1
  NUMBER OF FLOATING PT. OPERATIONS =  7.79E+10

  USING THE DIRECT SOLVER WITH   6 PROCESSORS

     CHECK POINT   START OF SOLVER    

     CHECK POINT  END OF SOLVER       

       ELAPSED USER TIME (SEC)      =   9.3000    
       ELAPSED SYSTEM TIME (SEC)    =   0.0000    
       ELAPSED TOTAL CPU TIME (SEC) =   9.3000    
       ELAPSED WALLCLOCK TIME (SEC) =          2
 

 ***WARNING: SOLVER PROBLEM. NUMERICAL SINGULARITY WHEN PROCESSING NODE 
             ASSEMBLY.1 D.O.F. 6 RATIO = 15.8450E+09 .
  
     ASYNCHRONOUS TRACKING ELEMENT LOOP STARTED
  

                   55 SEVERE DISCONTINUITIES OCCURRED DURING THIS ITERATION.
                   18 POINTS CHANGED FROM OPEN TO CLOSED
                   37 POINTS CHANGED FROM CLOSED TO OPEN

               CONVERGENCE CHECKS FOR SEVERE DISCONTINUITY ITERATION    15

   MAX. PENETRATION ERROR 60.3609E-06  AT NODE BATTERY-1.535 OF CONTACT PAIR 
   (ASSEMBLY_BATTERY-1_BATBOT,ASSEMBLY_CF-1_CFTOP)
   MAX. CONTACT FORCE ERROR -1.55783     AT NODE BATTERY-1.2951 OF CONTACT PAIR 
   (ASSEMBLY_BATTERY-1_BATTOP,ASSEMBLY_CF-2_CFBOT)
          THE ESTIMATED CONTACT FORCE ERROR IS OUTSIDE OF CONVERGENCE TOLERANCES.

 AVERAGE FORCE                      0.193       TIME AVG. FORCE       0.193    
 LARGEST RESIDUAL FORCE             0.296       AT NODE        275   DOF  3
   INSTANCE: CF-2                                                                            
 LARGEST INCREMENT OF DISP.        -0.245       AT NODE          2   DOF  3
   INSTANCE: CF-2                                                                            
 LARGEST CORRECTION TO DISP.        3.141E-02   AT NODE          4   DOF  1
   INSTANCE: CF-2                                                                            
          FORCE     EQUILIBRIUM NOT ACHIEVED WITHIN TOLERANCE.

 AVERAGE MOMENT                     0.140       TIME AVG. MOMENT      0.140    
 LARGEST RESIDUAL MOMENT           -0.392       AT NODE          1   DOF  4
   INSTANCE:                                                                                 
 LARGEST INCREMENT OF ROTATION      8.434E-03   AT NODE        491   DOF  5
   INSTANCE: CF-2                                                                            
 LARGEST CORRECTION TO ROTATION     3.814E-04   AT NODE        275   DOF  5
   INSTANCE: CF-2                                                                            
          MOMENT    EQUILIBRIUM NOT ACHIEVED WITHIN TOLERANCE.

  NUMBER OF EQUATIONS =     32166     NUMBER OF RHS =    1
  NUMBER OF FLOATING PT. OPERATIONS =  7.72E+10

  USING THE DIRECT SOLVER WITH   6 PROCESSORS

     CHECK POINT   START OF SOLVER    

     CHECK POINT  END OF SOLVER       

       ELAPSED USER TIME (SEC)      =   9.0000    
       ELAPSED SYSTEM TIME (SEC)    =   0.0000    
       ELAPSED TOTAL CPU TIME (SEC) =   9.0000    
       ELAPSED WALLCLOCK TIME (SEC) =          2
 

 ***WARNING: SOLVER PROBLEM. NUMERICAL SINGULARITY WHEN PROCESSING NODE 
             ASSEMBLY.1 D.O.F. 6 RATIO = 16.0605E+09 .
  
     ASYNCHRONOUS TRACKING ELEMENT LOOP STARTED
  

                   29 SEVERE DISCONTINUITIES OCCURRED DURING THIS ITERATION.
                   11 POINTS CHANGED FROM OPEN TO CLOSED
                   18 POINTS CHANGED FROM CLOSED TO OPEN

               CONVERGENCE CHECKS FOR SEVERE DISCONTINUITY ITERATION    16

   MAX. PENETRATION ERROR 67.4711E-06  AT NODE BATTERY-1.1054 OF CONTACT PAIR 
   (ASSEMBLY_BATTERY-1_BATBOT,ASSEMBLY_CF-1_CFTOP)
   MAX. CONTACT FORCE ERROR -206.454E-03   AT NODE BATTERY-1.3750 OF CONTACT 
   PAIR (ASSEMBLY_BATTERY-1_BATTOP,ASSEMBLY_CF-2_CFBOT)
          THE ESTIMATED CONTACT FORCE ERROR IS OUTSIDE OF CONVERGENCE TOLERANCES.

 AVERAGE FORCE                      0.193       TIME AVG. FORCE       0.193    
 LARGEST RESIDUAL FORCE             0.149       AT NODE        242   DOF  3
   INSTANCE: CF-2                                                                            
 LARGEST INCREMENT OF DISP.        -0.245       AT NODE          2   DOF  3
   INSTANCE: CF-2                                                                            
 LARGEST CORRECTION TO DISP.        1.290E-02   AT NODE         92   DOF  2
   INSTANCE: CF-1                                                                            
          FORCE     EQUILIBRIUM NOT ACHIEVED WITHIN TOLERANCE.

 AVERAGE MOMENT                     0.140       TIME AVG. MOMENT      0.140    
 LARGEST RESIDUAL MOMENT            9.355E-02   AT NODE          1   DOF  5
   INSTANCE:                                                                                 
 LARGEST INCREMENT OF ROTATION      8.338E-03   AT NODE        491   DOF  5
   INSTANCE: CF-2                                                                            
 LARGEST CORRECTION TO ROTATION     3.151E-04   AT NODE        239   DOF  5
   INSTANCE: CF-2                                                                            
          MOMENT    EQUILIBRIUM NOT ACHIEVED WITHIN TOLERANCE.

  NUMBER OF EQUATIONS =     32166     NUMBER OF RHS =    1
  NUMBER OF FLOATING PT. OPERATIONS =  7.65E+10

  USING THE DIRECT SOLVER WITH   6 PROCESSORS

     CHECK POINT   START OF SOLVER    

     CHECK POINT  END OF SOLVER       

       ELAPSED USER TIME (SEC)      =   9.6000    
       ELAPSED SYSTEM TIME (SEC)    =  0.10000    
       ELAPSED TOTAL CPU TIME (SEC) =   9.7000    
       ELAPSED WALLCLOCK TIME (SEC) =          1
 

 ***WARNING: SOLVER PROBLEM. NUMERICAL SINGULARITY WHEN PROCESSING NODE 
             ASSEMBLY.1 D.O.F. 6 RATIO = 16.1438E+09 .
  
     ASYNCHRONOUS TRACKING ELEMENT LOOP STARTED
  

                    9 SEVERE DISCONTINUITIES OCCURRED DURING THIS ITERATION.
                    3 POINTS CHANGED FROM OPEN TO CLOSED
                    6 POINTS CHANGED FROM CLOSED TO OPEN

               CONVERGENCE CHECKS FOR SEVERE DISCONTINUITY ITERATION    17

   MAX. PENETRATION ERROR 27.5819E-06  AT NODE BATTERY-1.1271 OF CONTACT PAIR 
   (ASSEMBLY_BATTERY-1_BATBOT,ASSEMBLY_CF-1_CFTOP)
   MAX. CONTACT FORCE ERROR -26.3568E-03  AT NODE BATTERY-1.1132 OF CONTACT 
   PAIR (ASSEMBLY_BATTERY-1_BATBOT,ASSEMBLY_CF-1_CFTOP)
          THE CONTACT CONSTRAINT ERRORS ARE WITHIN THE TOLERANCES.

 AVERAGE FORCE                      0.193       TIME AVG. FORCE       0.193    
 LARGEST RESIDUAL FORCE            -1.600E-02   AT NODE         30   DOF  3
   INSTANCE: CF-1                                                                            
 LARGEST INCREMENT OF DISP.        -0.245       AT NODE          2   DOF  3
   INSTANCE: CF-2                                                                            
 LARGEST CORRECTION TO DISP.       -2.451E-03   AT NODE         73   DOF  2
   INSTANCE: CF-2                                                                            
          FORCE     EQUILIBRIUM NOT ACHIEVED WITHIN TOLERANCE.

 AVERAGE MOMENT                     0.140       TIME AVG. MOMENT      0.140    
 LARGEST RESIDUAL MOMENT            3.076E-03   AT NODE          1   DOF  4
   INSTANCE:                                                                                 
 LARGEST INCREMENT OF ROTATION      8.329E-03   AT NODE        491   DOF  5
   INSTANCE: CF-2                                                                            
 LARGEST CORRECTION TO ROTATION    -8.735E-05   AT NODE        243   DOF  4
   INSTANCE: CF-2                                                                            
          MOMENT    EQUILIBRIUM NOT ACHIEVED WITHIN TOLERANCE.

  NUMBER OF EQUATIONS =     32166     NUMBER OF RHS =    1
  NUMBER OF FLOATING PT. OPERATIONS =  7.64E+10

  USING THE DIRECT SOLVER WITH   6 PROCESSORS

     CHECK POINT   START OF SOLVER    

     CHECK POINT  END OF SOLVER       

       ELAPSED USER TIME (SEC)      =   8.9000    
       ELAPSED SYSTEM TIME (SEC)    =   0.0000    
       ELAPSED TOTAL CPU TIME (SEC) =   8.9000    
       ELAPSED WALLCLOCK TIME (SEC) =          2
 

 ***WARNING: SOLVER PROBLEM. NUMERICAL SINGULARITY WHEN PROCESSING NODE 
             ASSEMBLY.1 D.O.F. 6 RATIO = 16.1547E+09 .
  
     ASYNCHRONOUS TRACKING ELEMENT LOOP STARTED
  

               CONVERGENCE CHECKS FOR EQUILIBRIUM ITERATION     1

   MAX. PENETRATION ERROR -169.187E-12   AT NODE BATTERY-1.1373 OF CONTACT PAIR 
   (ASSEMBLY_BATTERY-1_BATBOT,ASSEMBLY_CF-1_CFTOP)
   MAX. CONTACT FORCE ERROR -102.916E-09   AT NODE BATTERY-1.1373 OF CONTACT 
   PAIR (ASSEMBLY_BATTERY-1_BATBOT,ASSEMBLY_CF-1_CFTOP)
          THE CONTACT CONSTRAINTS HAVE CONVERGED.

 AVERAGE FORCE                      0.193       TIME AVG. FORCE       0.193    
 LARGEST RESIDUAL FORCE             7.626E-05   AT NODE       1348   DOF  3
   INSTANCE: BATTERY-1                                                                       
 LARGEST INCREMENT OF DISP.        -0.245       AT NODE          2   DOF  3
   INSTANCE: CF-2                                                                            
 LARGEST CORRECTION TO DISP.       -2.081E-03   AT NODE         66   DOF  2
   INSTANCE: CF-2                                                                            
          THE FORCE     EQUILIBRIUM EQUATIONS HAVE CONVERGED

 AVERAGE MOMENT                     0.140       TIME AVG. MOMENT      0.140    
 LARGEST RESIDUAL MOMENT           -1.185E-05   AT NODE          1   DOF  6
   INSTANCE:                                                                                 
 LARGEST INCREMENT OF ROTATION      8.329E-03   AT NODE        491   DOF  5
   INSTANCE: CF-2                                                                            
 LARGEST CORRECTION TO ROTATION     1.893E-05   AT NODE        245   DOF  6
   INSTANCE: CF-1                                                                            
          THE MOMENT    EQUILIBRIUM EQUATIONS HAVE CONVERGED

 ITERATION SUMMARY FOR THE INCREMENT:  18 TOTAL ITERATIONS, OF WHICH
  17 ARE SEVERE DISCONTINUITY ITERATIONS AND  1 ARE EQUILIBRIUM ITERATIONS.

 TIME INCREMENT COMPLETED   1.00    ,  FRACTION OF STEP COMPLETED   1.00    
 STEP TIME COMPLETED        1.00    ,  TOTAL TIME COMPLETED         1.00    


          THE ANALYSIS HAS BEEN COMPLETED



     ANALYSIS SUMMARY:
     TOTAL OF          1  INCREMENTS
                       0  CUTBACKS IN AUTOMATIC INCREMENTATION
                      18  ITERATIONS INCLUDING CONTACT ITERATIONS IF PRESENT
                      18  PASSES THROUGH THE EQUATION SOLVER OF WHICH 
                      18  INVOLVE MATRIX DECOMPOSITION, INCLUDING
                       0  DECOMPOSITION(S) OF THE MASS MATRIX
                       1  REORDERING OF EQUATIONS TO MINIMIZE WAVEFRONT
                       0  ADDITIONAL RESIDUAL EVALUATIONS FOR LINE SEARCHES
                       0  ADDITIONAL OPERATOR EVALUATIONS FOR LINE SEARCHES
                       0  WARNING MESSAGES DURING USER INPUT PROCESSING
                      18  WARNING MESSAGES DURING ANALYSIS
                      18  ANALYSIS WARNINGS ARE NUMERICAL PROBLEM MESSAGES
                       0  ANALYSIS WARNINGS ARE NEGATIVE EIGENVALUE MESSAGES
                       0  ERROR MESSAGES



     JOB TIME SUMMARY
       USER TIME (SEC)      =   258.40    
       SYSTEM TIME (SEC)    =   4.2000    
       TOTAL CPU TIME (SEC) =   262.60    
       WALLCLOCK TIME (SEC) =         57
