 Abaqus/Standard 3DEXPERIENCE R2019x                  DATE 29-May-2019 TIME 14:08:32
 SUMMARY OF JOB INFORMATION:
 STEP  INC ATT SEVERE EQUIL TOTAL  TOTAL      STEP       INC OF       DOF    IF
               DISCON ITERS ITERS  TIME/    TIME/LPF    TIME/LPF    MONITOR RIKS
               ITERS               FREQ
   1     1   1U   18    16    34  0.000      0.000      1.000     
   1     1   2U   17    16    33  0.000      0.000      0.2500    
   1     1   3U   10     1    11  0.000      0.000      0.06250   
   1     1   4    16     1    17  0.0156     0.0156     0.01563   
   1     2   1U    4     4     8  0.0156     0.0156     0.01563   
   1     2   2U    3     4     7  0.0156     0.0156     0.003906  
   1     2   3     2     1     3  0.0166     0.0166     0.0009766 
   1     3   1U    3     8    11  0.0166     0.0166     0.001465  
   1     3   2     2     1     3  0.0170     0.0170     0.0003662 
   1     4   1U    2     4     6  0.0170     0.0170     0.0005493 
   1     4   2     2     1     3  0.0171     0.0171     0.0001373 
   1     5   1U    1     4     5  0.0171     0.0171     0.0002060 
   1     5   2U    1     4     5  0.0171     0.0171     5.150e-05 
   1     5   3U    1     5     6  0.0171     0.0171     1.287e-05 
   1     5   4U    1     6     7  0.0171     0.0171     1.000e-05 
                          
 THE ANALYSIS HAS NOT BEEN COMPLETED
