 Abaqus/Standard 3DEXPERIENCE R2019x                  DATE 29-May-2019 TIME 14:46:03
 SUMMARY OF JOB INFORMATION:
 STEP  INC ATT SEVERE EQUIL TOTAL  TOTAL      STEP       INC OF       DOF    IF
               DISCON ITERS ITERS  TIME/    TIME/LPF    TIME/LPF    MONITOR RIKS
               ITERS               FREQ
   1     1   1U   18    16    34  0.000      0.000      1.000     
   1     1   2U   21    16    37  0.000      0.000      0.2500    
   1     1   3U   10     1    11  0.000      0.000      0.06250   
   1     1   4U   18     8    26  0.000      0.000      0.01563   
   1     1   5    17     1    18  0.00391    0.00391    0.003906  
   1     2   1     5     1     6  0.00781    0.00781    0.003906  
   1     3   1     2     1     3  0.0137     0.0137     0.005859  
   1     4   1     1     1     2  0.0225     0.0225     0.008789  
   1     5   1U    1     2     3  0.0225     0.0225     0.01318   
   1     5   2     0     1     1  0.0258     0.0258     0.003296  
   1     6   1U    0     4     4  0.0258     0.0258     0.004944  
   1     6   2U    0     4     4  0.0258     0.0258     0.001236  
   1     6   3U    0     4     4  0.0258     0.0258     0.0003090 
   1     6   4U    0     5     5  0.0258     0.0258     7.725e-05 
   1     6   5U    0     5     5  0.0258     0.0258     1.931e-05 
                          
 THE ANALYSIS HAS NOT BEEN COMPLETED
