 Abaqus/Standard 3DEXPERIENCE R2019x                  DATE 29-May-2019 TIME 15:51:49
 SUMMARY OF JOB INFORMATION:
 STEP  INC ATT SEVERE EQUIL TOTAL  TOTAL      STEP       INC OF       DOF    IF
               DISCON ITERS ITERS  TIME/    TIME/LPF    TIME/LPF    MONITOR RIKS
               ITERS               FREQ
   1     1   1U   18    16    34  0.000      0.000      1.000     
   1     1   2    18    16    34  0.250      0.250      0.2500    
   1     2   1U    3     3     6  0.250      0.250      0.1875    
   1     2   2U    3     3     6  0.250      0.250      0.04688   
   1     2   3U    1     4     5  0.250      0.250      0.01172   
   1     2   4     1     1     2  0.253      0.253      0.002930  
   1     3   1U    1     4     5  0.253      0.253      0.002930  
   1     3   2U    1     4     5  0.253      0.253      0.0007324 
   1     3   3U    1     4     5  0.253      0.253      0.0001831 
   1     3   4U    0     4     4  0.253      0.253      4.578e-05 
   1     3   5U    0     4     4  0.253      0.253      1.144e-05 
                          
 THE ANALYSIS HAS NOT BEEN COMPLETED
