*Heading
** Job name: Job-17 Model name: Model-1
** Generated by: Abaqus/CAE 2019
*Preprint, echo=NO, model=NO, history=NO, contact=NO
**
** PARTS
**
*Part, name=Battery
*Node
      1,   58.6412773,   86.1213226,           0.
      2,   56.5199585,          87.,           0.
      3,   54.3986397,   86.1213226,           0.
      4,   53.5199585,          84.,           0.
      5,   54.3986397,   81.8786774,           0.
      6,   56.5199585,          81.,           0.
      7,   58.6412773,   81.8786774,           0.
      8,   59.5199585,          84.,           0.
      9,   15.8285513,   77.3992691,           0.
     10,   13.9560041,   79.7473755,           0.
     11,   11.2500944,   81.0504684,           0.
     12,   5.54085207,   79.7473755,           0.
     13,   3.66830444,   77.3992691,           0.
     14,           3.,   74.4712372,           0.
     15,   3.66830444,   71.5432053,           0.
     16,   5.54085207,   69.1951065,           0.
     17,   8.24676132,   67.8920059,           0.
     18,   13.9560041,   69.1951065,           0.
     19,   15.8285513,   71.5432053,           0.
     20,   16.4968567,   74.4712372,           0.
** ... 3511 like lines cut
*Element, type=C3D8R
   1,  457,  316,  254,  395, 1634, 1493, 1431, 1572
   2,   50,  147,  194,  148, 1227, 1324, 1371, 1325
   3,  316,  195,  142,  141, 1493, 1372, 1319, 1318
   4,  315,  210,  153,  152, 1492, 1387, 1330, 1329
   5,   56,  305, 1044,   36, 1233, 1482, 2221, 1213
   6,  179,  313,  180,    6, 1356, 1490, 1357, 1183
   7,  637,  584, 1082,  460, 1814, 1761, 2259, 1637
   8,  312,    7,    6,  180, 1489, 1184, 1183, 1357
   9,   57,  303,  299,   38, 1234, 1480, 1476, 1215
  10,   22,   21, 1038,  184, 1199, 1198, 2215, 1361
  11,  578,  185,   53,  188, 1755, 1362, 1230, 1365
  12,  191,   25,   24,  212, 1368, 1202, 1201, 1389
  13,  191,  102,  101,   25, 1368, 1279, 1278, 1202
  14,   26,  100,   99,   27, 1203, 1277, 1276, 1204
  15,   93,  202,  238,   94, 1270, 1379, 1415, 1271
  16,   98,  196,   27,   99, 1275, 1373, 1204, 1276
  17,   13,  114,  113,   14, 1190, 1291, 1290, 1191
  18,  287, 1036,  116,  115, 1464, 2213, 1293, 1292
  19,  198,  120,  119,  197, 1375, 1297, 1296, 1374
  20,  199,  121,  120,  198, 1376, 1298, 1297, 1375
** ... 2164 like lines cut
*Nset, nset=Batset, generate
    1,  3531,     1
*Elset, elset=Batset, generate
    1,  2184,     1
*Elset, elset=_BatTop_S2, internal, generate
 1093,  2184,     1
*Surface, type=ELEMENT, name=BatTop
_BatTop_S2, S2
*Elset, elset=_BatBot_S1, internal, generate
    1,  1092,     1
*Surface, type=ELEMENT, name=BatBot
_BatBot_S1, S1
*Elset, elset=_Battery-rivet-0_S6, internal
    5,    9,  204,  210, 1097, 1101, 1296, 1302
*Elset, elset=_Battery-rivet-0_S3, internal
   37,   71,  145,  197,  209, 1129, 1163, 1237, 1289, 1301
*Elset, elset=_Battery-rivet-0_S5, internal
  196,  281,  282,  286,  289, 1288, 1373, 1374, 1378, 1381
*Elset, elset=_Battery-rivet-0_S4, internal
  211,  250,  280,  283,  290,  301, 1303, 1342, 1372, 1375, 1382, 1393
*Surface, type=ELEMENT, name=Battery-rivet-0
_Battery-rivet-0_S6, S6
_Battery-rivet-0_S3, S3
_Battery-rivet-0_S4, S4
_Battery-rivet-0_S5, S5
*Elset, elset=_Battery-rivet-1_S3, internal
   10,   34,   41,   76, 1102, 1126, 1133, 1168
*Elset, elset=_Battery-rivet-1_S4, internal
   12,   96,  166,  167,  169,  171,  172, 1104, 1188, 1258, 1259, 1261, 1263, 1264
*Elset, elset=_Battery-rivet-1_S6, internal
   14,   94,   97, 1106, 1186, 1189
*Surface, type=ELEMENT, name=Battery-rivet-1
_Battery-rivet-1_S3, S3
_Battery-rivet-1_S4, S4
_Battery-rivet-1_S6, S6
*Elset, elset=_Battery-rivet-2_S6, internal
   17,   26,  108,  113,  233,  234, 1109, 1118, 1200, 1205, 1325, 1326
*Elset, elset=_Battery-rivet-2_S4, internal
  107,  268,  270, 1199, 1360, 1362
*Elset, elset=_Battery-rivet-2_S3, internal
  168,  231,  266, 1260, 1323, 1358
*Elset, elset=_Battery-rivet-2_S5, internal
  265,  273, 1357, 1365
*Surface, type=ELEMENT, name=Battery-rivet-2
_Battery-rivet-2_S6, S6
_Battery-rivet-2_S4, S4
_Battery-rivet-2_S3, S3
_Battery-rivet-2_S5, S5
*Elset, elset=_Battery-rivet-3_S4, internal
    8,  162, 1100, 1254
*Elset, elset=_Battery-rivet-3_S3, internal
   22,   24,   61,  118, 1114, 1116, 1153, 1210
*Elset, elset=_Battery-rivet-3_S5, internal
  123,  158, 1215, 1250
*Surface, type=ELEMENT, name=Battery-rivet-3
_Battery-rivet-3_S4, S4
_Battery-rivet-3_S3, S3
_Battery-rivet-3_S5, S5
*Orientation, name=Ori-1
1., 0., 0., 0., 1., 0.
3, 0.
** Section: BatOrtho
*Solid Section, elset=Batset, orientation=Ori-1, material=BatOrtho
,
*End Part
**  
*Part, name=CF
*Node
      1,         52.5,           0.,           0.
      2,         52.5,         110.,           0.
      3,           0.,         110.,           0.
      4,           0.,           0.,           0.
      5,         57.5,           0.,           0.
      6,         57.5,         110.,           0.
      7,         110.,           0.,           0.
      8,         110.,         110.,           0.
      9,         52.5,   2.97297287,           0.
     10,         52.5,   5.94594574,           0.
     11,         52.5,   8.91891861,           0.
     12,         52.5,   11.8918915,           0.
     13,         52.5,   14.8648653,           0.
     14,         52.5,   17.8378372,           0.
     15,         52.5,   20.8108101,           0.
     16,         52.5,    23.783783,           0.
     17,         52.5,   26.7567558,           0.
     18,         52.5,   29.7297306,           0.
     19,         52.5,   32.7027016,           0.
     20,         52.5,   35.6756744,           0.
** ... 1462 like lines cut
*Element, type=S4R
  1,   1,   9, 223, 114
  2,   9,  10, 224, 223
  3,  10,  11, 225, 224
  4,  11,  12, 226, 225
  5,  12,  13, 227, 226
  6,  13,  14, 228, 227
  7,  14,  15, 229, 228
  8,  15,  16, 230, 229
  9,  16,  17, 231, 230
 10,  17,  18, 232, 231
 11,  18,  19, 233, 232
 12,  19,  20, 234, 233
 13,  20,  21, 235, 234
 14,  21,  22, 236, 235
 15,  22,  23, 237, 236
 16,  23,  24, 238, 237
 17,  24,  25, 239, 238
 18,  25,  26, 240, 239
 19,  26,  27, 241, 240
 20,  27,  28, 242, 241
** ... 1386 like lines cut
*Nset, nset=CF_set, generate
    1,  1482,     1
*Elset, elset=CF_set, generate
    1,  1406,     1
*Elset, elset=_CFtop_SPOS, internal, generate
    1,  1406,     1
*Surface, type=ELEMENT, name=CFtop
_CFtop_SPOS, SPOS
*Elset, elset=_CFbot_SNEG, internal, generate
    1,  1406,     1
*Surface, type=ELEMENT, name=CFbot
_CFbot_SNEG, SNEG
** Section: CF_sec
*Shell Section, elset=CF_set, composite
0.2, 3, CF_material, 0.
0.2, 3, CF_material, 90.
0.2, 3, CF_material, 90.
0.2, 3, CF_material, 0.
*End Part
**  
*Part, name=Polymer
*Node
      1,   26.4968567,   84.4712372,           0.
      2,   26.4968567,   84.4712372,           5.
      3,   90.2686539,   46.0340919,           0.
      4,   90.2686539,   46.0340919,           5.
      5,          10.,         100.,           0.
      6,          10.,          10.,           0.
      7,         100.,          10.,           0.
      8,         100.,         100.,           0.
      9,         110.,           0.,           0.
     10,           0.,           0.,           0.
     11,           0.,         110.,           0.
     12,         110.,         110.,           0.
     13,          10.,          10.,           5.
     14,          10.,         100.,           5.
     15,         100.,         100.,           5.
     16,         100.,          10.,           5.
     17,           0.,         110.,           5.
     18,           0.,           0.,           5.
     19,         110.,           0.,           5.
     20,         110.,         110.,           5.
** ... 2383 like lines cut
*Element, type=C3D8R
 1,  709, 1943, 1927,  710,   36,  673,  657,   37
 2, 1946, 1943, 1944, 1942,  676,  673,  674,  672
 3, 1941, 1940, 1928, 1932,  671,  670,  658,  662
 4, 1929, 1928, 1940, 1939,  659,  658,  670,  669
 5, 1929, 1937, 1936, 1933,  659,  667,  666,  663
 6,  697, 1935, 1931,  698,    1,  665,  661,   25
 7, 1935, 1933, 1945, 1931,  665,  663,  675,  661
 8, 1942, 1941, 1932, 1946,  672,  671,  662,  676
 9, 1933, 1934, 1928, 1929,  663,  664,  658,  659
10,  710, 1927, 1935,  697,   37,  657,  665,    1
11,  704, 1939, 1940,  705,   31,  669,  670,   32
12, 1938, 1939,  704,  703,  668,  669,   31,   30
13,  703,  702, 1937, 1938,   30,   29,  667,  668
14, 1936, 1930, 1945, 1933,  666,  660,  675,  663
15, 1945, 1930,  700,  699,  675,  660,   27,   26
16, 1931, 1945,  699,  698,  661,  675,   26,   25
17, 1927, 1934, 1933, 1935,  657,  664,  663,  665
18,  700, 1930, 1936,  701,   27,  660,  666,   28
19, 1946, 1934, 1927, 1943,  676,  664,  657,  673
20,  706, 1941, 1942,  707,   33,  671,  672,   34
** ... 1250 like lines cut
*Nset, nset=PolySet
    5,    6,    7,    8,    9,   10,   11,   12,   13,   14,   15,   16,   17,   18,   19,   20
   89,   90,   91,   92,   93,   94,   95,   96,   97,   98,   99,  100,  101,  102,  103,  104
  105,  106,  107,  108,  109,  110,  111,  112,  113,  114,  115,  116,  117,  118,  119,  120
  121,  122,  123,  124,  125,  126,  127,  128,  129,  130,  131,  132,  133,  134,  135,  136
  137,  138,  139,  140,  141,  142,  143,  144,  145,  146,  147,  148,  149,  150,  151,  152
  153,  154,  155,  156,  157,  158,  159,  160,  161,  162,  163,  164,  165,  166,  167,  168
  169,  170,  171,  172,  173,  174,  175,  176,  177,  178,  179,  180,  181,  182,  183,  184
  185,  186,  187,  188,  189,  190,  191,  192,  193,  194,  195,  196,  197,  198,  199,  200
  201,  202,  203,  204,  205,  206,  207,  208,  209,  210,  211,  212,  213,  214,  215,  216
  217,  218,  219,  220,  221,  222,  223,  224,  225,  226,  227,  228,  229,  230,  231,  232
  233,  234,  235,  236,  237,  238,  239,  240,  241,  242,  243,  244,  245,  246,  247,  248
  249,  250,  251,  252,  253,  254,  255,  256,  257,  258,  259,  260,  261,  262,  263,  264
  265,  266,  267,  268,  269,  270,  271,  272,  273,  274,  275,  276,  277,  278,  279,  280
  281,  282,  283,  284,  285,  286,  287,  288,  289,  290,  291,  292,  293,  294,  295,  296
  297,  298,  299,  300,  301,  302,  303,  304,  305,  306,  307,  308,  309,  310,  311,  312
  313,  314,  315,  316,  317,  318,  319,  320,  321,  322,  323,  324,  325,  326,  327,  328
  329,  330,  331,  332,  333,  334,  335,  336,  337,  338,  339,  340,  341,  342,  343,  344
  345,  346,  347,  348,  349,  350,  351,  352,  353,  354,  355,  356,  357,  358,  359,  360
  361,  362,  363,  364,  365,  366,  367,  368,  369,  370,  371,  372,  373,  374,  375,  376
  377,  378,  379,  380,  381,  382,  383,  384,  385,  386,  387,  388,  389,  390,  391,  392
** ... 106 like lines cut
*Elset, elset=PolySet, generate
  143,  1214,     1
*Nset, nset=_PickedSet12, internal
    3,    4,   51,   52,   53,   54,   55,   56,   57,   58,   59,   60,   61,   62,   63,   64
   65,   66,   67,   68,   69,   70,   71,   72,   73,   74,   75,   76,   77,   78,   79,   80
   81,   82,   83,   84,   85,   86,   87,   88,  711,  712,  713,  714,  715,  716,  717,  718
  719,  720,  721,  722,  723,  724,  725,  726,  727,  728,  729,  730,  731,  732,  733,  734
  735,  736,  737,  738,  739,  740,  741,  742,  743,  744,  745,  746,  747,  748,  749,  750
  751,  752,  753,  754,  755,  756,  757,  758,  759,  760,  761,  762,  763,  764,  765,  766
  767,  768,  769,  770,  771,  772,  773,  774,  775,  776,  777,  778,  779,  780,  781,  782
  783,  784,  785,  786,  787,  788,  789,  790,  791,  792,  793,  794,  795,  796,  797,  798
  799,  800,  801,  802, 1947, 1948, 1949, 1950, 1951, 1952, 1953, 1954, 1955, 1956, 1957, 1958
 1959, 1960, 1961, 1962, 1963, 1964, 1965, 1966, 1967, 1968, 1969, 1970, 1971, 1972, 1973, 1974
 1975, 1976, 1977, 1978, 1979, 1980, 1981, 1982
*Elset, elset=_PickedSet12, internal, generate
  53,  142,    1
*Nset, nset=_PickedSet17, internal
   21,   22,  617,  618,  619,  620,  621,  622,  623,  624,  625,  626,  627,  628,  629,  630
  631,  632,  633,  634,  635,  636,  637,  638,  639,  640,  641,  642, 1867, 1868, 1869, 1870
 1871, 1872, 1873, 1874, 1875, 1876, 1877, 1878, 1879, 1880, 1881, 1882, 1883, 1884, 1885, 1886
 1887, 1888, 1889, 1890, 1891, 1892, 1893, 1894, 1895, 1896, 1897, 1898, 1899, 1900, 1901, 1902
 1903, 1904, 1905, 1906, 1907, 1908, 1909, 1910, 1911, 1912, 1913, 1914, 1915, 1916, 2385, 2386
 2387, 2388, 2389, 2390, 2391, 2392, 2393, 2394, 2395, 2396, 2397, 2398, 2399, 2400, 2401, 2402
*Elset, elset=_PickedSet17, internal, generate
 1215,  1262,     1
*Nset, nset=_PickedSet22, internal
    1,    2,   25,   26,   27,   28,   29,   30,   31,   32,   33,   34,   35,   36,   37,   38
   39,   40,   41,   42,   43,   44,   45,   46,   47,   48,   49,   50,  657,  658,  659,  660
  661,  662,  663,  664,  665,  666,  667,  668,  669,  670,  671,  672,  673,  674,  675,  676
  677,  678,  679,  680,  681,  682,  683,  684,  685,  686,  687,  688,  689,  690,  691,  692
  693,  694,  695,  696,  697,  698,  699,  700,  701,  702,  703,  704,  705,  706,  707,  708
  709,  710, 1927, 1928, 1929, 1930, 1931, 1932, 1933, 1934, 1935, 1936, 1937, 1938, 1939, 1940
 1941, 1942, 1943, 1944, 1945, 1946
*Elset, elset=_PickedSet22, internal, generate
  1,  52,   1
*Nset, nset=_PickedSet27, internal
   23,   24,  643,  644,  645,  646,  647,  648,  649,  650,  651,  652,  653,  654,  655,  656
 1917, 1918, 1919, 1920, 1921, 1922, 1923, 1924, 1925, 1926, 2403
*Elset, elset=_PickedSet27, internal, generate
 1263,  1270,     1
*Elset, elset=_PolyTop_S2, internal, generate
  679,  1214,     1
*Surface, type=ELEMENT, name=PolyTop
_PolyTop_S2, S2
*Elset, elset=_PolyBot_S1, internal, generate
 143,  678,    1
*Surface, type=ELEMENT, name=PolyBot
_PolyBot_S1, S1
*Elset, elset=_Polymer-rivet-0_S4, internal
  53,  68,  72,  73,  74,  75,  76,  77,  78,  82,  96,  98, 113, 117, 118, 119
 120, 121, 122, 123, 127, 141
*Elset, elset=_Polymer-rivet-0_S6, internal
  54,  59,  69,  70,  79,  80,  99, 104, 114, 115, 124, 125
*Elset, elset=_Polymer-rivet-0_S3, internal
  71,  81,  85, 116, 126, 130
*Surface, type=ELEMENT, name=Polymer-rivet-0
_Polymer-rivet-0_S4, S4
_Polymer-rivet-0_S6, S6
_Polymer-rivet-0_S3, S3
*Elset, elset=_Polymer-rivet-top-0_S1, internal, generate
  98,  142,    1
*Surface, type=ELEMENT, name=Polymer-rivet-top-0
_Polymer-rivet-top-0_S1, S1
*Elset, elset=_Polymer-rivet-bot-0_S2, internal, generate
 53,  97,   1
*Surface, type=ELEMENT, name=Polymer-rivet-bot-0
_Polymer-rivet-bot-0_S2, S2
*Elset, elset=_Polymer-rivet-1_S4, internal
 1215, 1216, 1225, 1228, 1229, 1230, 1233, 1239, 1240, 1249, 1252, 1253, 1254, 1257
*Elset, elset=_Polymer-rivet-1_S3, internal
 1217, 1218, 1222, 1237, 1241, 1242, 1246, 1261
*Elset, elset=_Polymer-rivet-1_S6, internal
 1219, 1226, 1231, 1243, 1250, 1255
*Surface, type=ELEMENT, name=Polymer-rivet-1
_Polymer-rivet-1_S4, S4
_Polymer-rivet-1_S3, S3
_Polymer-rivet-1_S6, S6
*Elset, elset=_Polymer-rivet-top-1_S1, internal, generate
 1239,  1262,     1
*Surface, type=ELEMENT, name=Polymer-rivet-top-1
_Polymer-rivet-top-1_S1, S1
*Elset, elset=_Polymer-rivet-bot-1_S2, internal, generate
 1215,  1238,     1
*Surface, type=ELEMENT, name=Polymer-rivet-bot-1
_Polymer-rivet-bot-1_S2, S2
*Elset, elset=_Polymer-rivet-2_S6, internal
  1,  6, 10, 11, 18, 20, 23, 24, 27, 32, 36, 37, 44, 46, 49, 50
*Elset, elset=_Polymer-rivet-2_S5, internal
 12, 15, 16, 38, 41, 42
*Elset, elset=_Polymer-rivet-2_S3, internal
 13, 21, 39, 47
*Elset, elset=_Polymer-rivet-2_S4, internal
 25, 51
*Surface, type=ELEMENT, name=Polymer-rivet-2
_Polymer-rivet-2_S6, S6
_Polymer-rivet-2_S5, S5
_Polymer-rivet-2_S4, S4
_Polymer-rivet-2_S3, S3
*Elset, elset=_Polymer-rivet-top-2_S1, internal, generate
 27,  52,   1
*Surface, type=ELEMENT, name=Polymer-rivet-top-2
_Polymer-rivet-top-2_S1, S1
*Elset, elset=_Polymer-rivet-bot-2_S2, internal, generate
  1,  26,   1
*Surface, type=ELEMENT, name=Polymer-rivet-bot-2
_Polymer-rivet-bot-2_S2, S2
*Elset, elset=_Polymer-rivet-3_S4, internal
 1263, 1266, 1267, 1270
*Elset, elset=_Polymer-rivet-3_S5, internal
 1263, 1266, 1267, 1270
*Elset, elset=_Polymer-rivet-3_S3, internal
 1264, 1265, 1268, 1269
*Elset, elset=_Polymer-rivet-3_S6, internal
 1264, 1265, 1268, 1269
*Surface, type=ELEMENT, name=Polymer-rivet-3
_Polymer-rivet-3_S4, S4
_Polymer-rivet-3_S5, S5
_Polymer-rivet-3_S6, S6
_Polymer-rivet-3_S3, S3
*Elset, elset=_Polymer-rivet-top-3_S1, internal, generate
 1267,  1270,     1
*Surface, type=ELEMENT, name=Polymer-rivet-top-3
_Polymer-rivet-top-3_S1, S1
*Elset, elset=_Polymer-rivet-bot-3_S2, internal, generate
 1263,  1266,     1
*Surface, type=ELEMENT, name=Polymer-rivet-bot-3
_Polymer-rivet-bot-3_S2, S2
** Section: PolySec
*Solid Section, elset=_PickedSet22, material=Polymer
,
** Section: PolySec
*Solid Section, elset=_PickedSet12, material=Polymer
,
** Section: PolySec
*Solid Section, elset=PolySet, material=Polymer
,
** Section: PolySec
*Solid Section, elset=_PickedSet17, material=Polymer
,
** Section: PolySec
*Solid Section, elset=_PickedSet27, material=Polymer
,
*End Part
**  
**
** ASSEMBLY
**
*Assembly, name=Assembly
**  
*Instance, name=Polymer-1, part=Polymer
*End Instance
**  
*Instance, name=Battery-1, part=Battery
         10.,          10.,           0.
*End Instance
**  
*Instance, name=CF-1, part=CF
          0.,           0.,         -0.4
*End Instance
**  
*Instance, name=CF-2, part=CF
          0.,           0.,          5.4
*End Instance
**  
*Node
      1,          55.,          55.,    5.4000001
*Nset, nset=VerticalSupport, instance=CF-1
   3,   4,   7,   8,  62,  63,  64,  65,  66,  67,  68,  69,  70,  71,  72,  73
  74,  75,  76,  77,  78,  79,  80,  81,  82,  83,  84,  85,  86,  87,  88,  89
  90,  91,  92,  93,  94,  95,  96,  97, 170, 171, 172, 173, 174, 175, 176, 177
 178, 179, 180, 181, 182, 183, 184, 185, 186, 187, 188, 189, 190, 191, 192, 193
 194, 195, 196, 197, 198, 199, 200, 201, 202, 203, 204, 205
*Elset, elset=VerticalSupport, instance=CF-1
  630,  631,  632,  633,  634,  635,  636,  637,  638,  639,  640,  641,  642,  643,  644,  645
  646,  647,  648,  649,  650,  651,  652,  653,  654,  655,  656,  657,  658,  659,  660,  661
  662,  663,  664,  665,  666, 1370, 1371, 1372, 1373, 1374, 1375, 1376, 1377, 1378, 1379, 1380
 1381, 1382, 1383, 1384, 1385, 1386, 1387, 1388, 1389, 1390, 1391, 1392, 1393, 1394, 1395, 1396
 1397, 1398, 1399, 1400, 1401, 1402, 1403, 1404, 1405, 1406
*Nset, nset=XDirSupport, instance=CF-1
 3,
*Nset, nset=YDirSupport, instance=CF-1
 7,
*Nset, nset=rigid_loading_set, instance=CF-2
   1,   2,   5,   6,   9,  10,  11,  12,  13,  14,  15,  16,  17,  18,  19,  20
  21,  22,  23,  24,  25,  26,  27,  28,  29,  30,  31,  32,  33,  34,  35,  36
  37,  38,  39,  40,  41,  42,  43,  44, 115, 116, 117, 118, 119, 120, 121, 122
 123, 124, 125, 126, 127, 128, 129, 130, 131, 132, 133, 134, 135, 136, 137, 138
 139, 140, 141, 142, 143, 144, 145, 146, 147, 148, 149, 150, 151, 152, 835, 836
 837, 838, 839, 840, 841, 842, 843, 844, 845, 846, 847, 848, 849, 850, 851, 852
 853, 854, 855, 856, 857, 858, 859, 860, 861, 862, 863, 864, 865, 866, 867, 868
 869, 870
*Elset, elset=rigid_loading_set, instance=CF-2, generate
 667,  740,    1
*Nset, nset=_PickedSet14, internal
 1,
*Elset, elset=__PickedSurf15_SPOS, internal, instance=CF-2, generate
 667,  740,    1
*Surface, type=ELEMENT, name=_PickedSurf15, internal
__PickedSurf15_SPOS, SPOS
** Constraint: BatPoly-0
*Tie, name=BatPoly-0, adjust=no, position tolerance=1.
Battery-1.Battery-rivet-0, Polymer-1.Polymer-rivet-0
** Constraint: BatPoly-1
*Tie, name=BatPoly-1, adjust=no, position tolerance=1.
Battery-1.Battery-rivet-1, Polymer-1.Polymer-rivet-1
** Constraint: BatPoly-2
*Tie, name=BatPoly-2, adjust=no, position tolerance=1.
Battery-1.Battery-rivet-2, Polymer-1.Polymer-rivet-2
** Constraint: BatPoly-3
*Tie, name=BatPoly-3, adjust=no, position tolerance=1.
Battery-1.Battery-rivet-3, Polymer-1.Polymer-rivet-3
** Constraint: CF1Poly
*Tie, name=CF1Poly, adjust=no, position tolerance=1.
Polymer-1.PolyBot, CF-1.CFtop
** Constraint: CF1Poly-Rivet-0
*Tie, name=CF1Poly-Rivet-0, adjust=no, position tolerance=1.
Polymer-1.Polymer-rivet-bot-0, CF-1.CFtop
** Constraint: CF1Poly-Rivet-1
*Tie, name=CF1Poly-Rivet-1, adjust=no, position tolerance=1.
Polymer-1.Polymer-rivet-bot-1, CF-1.CFtop
** Constraint: CF1Poly-Rivet-2
*Tie, name=CF1Poly-Rivet-2, adjust=no, position tolerance=1.
Polymer-1.Polymer-rivet-bot-2, CF-1.CFtop
** Constraint: CF1Poly-Rivet-3
*Tie, name=CF1Poly-Rivet-3, adjust=no, position tolerance=1.
Polymer-1.Polymer-rivet-bot-3, CF-1.CFtop
** Constraint: CF2Poly
*Tie, name=CF2Poly, adjust=no, position tolerance=1.
Polymer-1.PolyTop, CF-2.CFbot
** Constraint: CF2Poly-Rivet-0
*Tie, name=CF2Poly-Rivet-0, adjust=no, position tolerance=1.
Polymer-1.Polymer-rivet-top-0, CF-2.CFbot
** Constraint: CF2Poly-Rivet-1
*Tie, name=CF2Poly-Rivet-1, adjust=no, position tolerance=1.
Polymer-1.Polymer-rivet-top-1, CF-2.CFbot
** Constraint: CF2Poly-Rivet-2
*Tie, name=CF2Poly-Rivet-2, adjust=no, position tolerance=1.
Polymer-1.Polymer-rivet-top-2, CF-2.CFbot
** Constraint: CF2Poly-Rivet-3
*Tie, name=CF2Poly-Rivet-3, adjust=no, position tolerance=1.
Polymer-1.Polymer-rivet-top-3, CF-2.CFbot
** Constraint: LoadingRigidBody
*Rigid Body, ref node=_PickedSet14, tie nset=rigid_loading_set
*End Assembly
** 
** MATERIALS
** 
*Material, name=BatOrtho
*Elastic, type=ENGINEERING CONSTANTS
1090., 109., 500., 0.15, 0.15, 0.15, 474., 474.
 474.,
*Material, name=CF_material
*Elastic, type=ENGINEERING CONSTANTS
30420.,  4023.,  4023.,   0.29,   0.29, 0.3928,  2081.,  2081.
  1440.,
*Material, name=Polymer
*Elastic
500., 0.3
** 
** INTERACTION PROPERTIES
** 
*Surface Interaction, name=NormCont
1.,
*Friction, slip tolerance=0.005
 0.3,
*Surface Behavior, pressure-overclosure=HARD
** 
** INTERACTIONS
** 
** Interaction: CF1Bat
*Contact Pair, interaction=NormCont, type=SURFACE TO SURFACE
Battery-1.BatBot, CF-1.CFtop
** Interaction: CF2Bat
*Contact Pair, interaction=NormCont, type=SURFACE TO SURFACE
Battery-1.BatTop, CF-2.CFbot
** ----------------------------------------------------------------
** 
** STEP: Loading
** 
*Step, name=Loading, nlgeom=NO
*Static
1., 1., 1e-05, 1.
** 
** BOUNDARY CONDITIONS
** 
** Name: VerticalSupport Type: Displacement/Rotation
*Boundary
VerticalSupport, 3, 3
** Name: XDirSupport Type: Displacement/Rotation
*Boundary
XDirSupport, 1, 1
** Name: YDirSupport Type: Displacement/Rotation
*Boundary
YDirSupport, 2, 2
** 
** LOADS
** 
** Name: Load-1   Type: Pressure
*Dsload
_PickedSurf15, P, 0.181818
** 
** OUTPUT REQUESTS
** 
*Restart, write, frequency=0
** 
** FIELD OUTPUT: F-Output-1
** 
*Output, field
*Node Output
U, UR, UT
*Element Output, directions=YES
EVOL, 
** 
** HISTORY OUTPUT: H-Output-1
** 
*Output, history, variable=PRESELECT
*End Step
