 Abaqus/Standard 3DEXPERIENCE R2019x                  DATE 29-May-2019 TIME 15:41:37
 SUMMARY OF JOB INFORMATION:
 STEP  INC ATT SEVERE EQUIL TOTAL  TOTAL      STEP       INC OF       DOF    IF
               DISCON ITERS ITERS  TIME/    TIME/LPF    TIME/LPF    MONITOR RIKS
               ITERS               FREQ
   1     1   1U   18    16    34  0.000      0.000      1.000     
   1     1   2U   18    16    34  0.000      0.000      0.2500    
   1     1   3U    6     1     7  0.000      0.000      0.06250   
   1     1   4U   16     4    20  0.000      0.000      0.01563   
   1     1   5    14     1    15  0.00391    0.00391    0.003906  
   1     2   1     4     1     5  0.00781    0.00781    0.003906  
   1     3   1U    3     6     9  0.00781    0.00781    0.005859  
   1     3   2U    3     8    11  0.00781    0.00781    0.001465  
   1     3   3U    3     4     7  0.00781    0.00781    0.0003662 
   1     3   4     2     1     3  0.00790    0.00790    9.155e-05 
   1     4   1U    2     4     6  0.00790    0.00790    0.0001373 
   1     4   2U    2     8    10  0.00790    0.00790    3.433e-05 
   1     4   3     1     1     2  0.00791    0.00791    1.000e-05 
   1     5   1U    2     7     9  0.00791    0.00791    1.500e-05 
   1     5   2U    2     8    10  0.00791    0.00791    1.000e-05 
                          
 THE ANALYSIS HAS NOT BEEN COMPLETED
