 Abaqus/Standard 3DEXPERIENCE R2019x                  DATE 29-May-2019 TIME 15:01:34
 SUMMARY OF JOB INFORMATION:
 STEP  INC ATT SEVERE EQUIL TOTAL  TOTAL      STEP       INC OF       DOF    IF
               DISCON ITERS ITERS  TIME/    TIME/LPF    TIME/LPF    MONITOR RIKS
               ITERS               FREQ
   1     1   1U   17    16    33  0.000      0.000      1.000     
   1     1   2U   19    16    35  0.000      0.000      0.2500    
   1     1   3U   12     1    13  0.000      0.000      0.06250   
   1     1   4    16     1    17  0.0156     0.0156     0.01563   
   1     2   1U    2     1     3  0.0156     0.0156     0.01563   
   1     2   2U    3     4     7  0.0156     0.0156     0.003906  
   1     2   3U    3     4     7  0.0156     0.0156     0.0009766 
   1     2   4U    1     5     6  0.0156     0.0156     0.0002441 
   1     2   5U    1     4     5  0.0156     0.0156     6.104e-05 
                          
 THE ANALYSIS HAS NOT BEEN COMPLETED
