 Abaqus/Standard 3DEXPERIENCE R2019x                  DATE 28-May-2019 TIME 00:02:33
 SUMMARY OF JOB INFORMATION:
 STEP  INC ATT SEVERE EQUIL TOTAL  TOTAL      STEP       INC OF       DOF    IF
               DISCON ITERS ITERS  TIME/    TIME/LPF    TIME/LPF    MONITOR RIKS
               ITERS               FREQ
   1     1   1U   17    16    33  0.000      0.000      1.000     
   1     1   2U   17    16    33  0.000      0.000      0.2500    
   1     1   3U    7     1     8  0.000      0.000      0.06250   
   1     1   4    16     1    17  0.0156     0.0156     0.01563   
   1     2   1U    3     4     7  0.0156     0.0156     0.01563   
   1     2   2U    4     6    10  0.0156     0.0156     0.003906  
   1     2   3     2     1     3  0.0166     0.0166     0.0009766 
   1     3   1     2     1     3  0.0181     0.0181     0.001465  
   1     4   1U    1     6     7  0.0181     0.0181     0.002197  
   1     4   2U    5     4     9  0.0181     0.0181     0.0005493 
   1     4   3U    1     5     6  0.0181     0.0181     0.0001373 
   1     4   4U    1     5     6  0.0181     0.0181     3.433e-05 
   1     4   5U    1     5     6  0.0181     0.0181     1.000e-05 
                          
 THE ANALYSIS HAS NOT BEEN COMPLETED
