*Heading
** Job name: Job-68 Model name: Model-1
** Generated by: Abaqus/CAE 2019
*Preprint, echo=NO, model=NO, history=NO, contact=NO
**
** PARTS
**
*Part, name=Battery
*Node
      1,   85.3947372,   43.8110657,           0.
      2,    82.792244,   44.8890533,           0.
      3,   80.1897583,   43.8110657,           0.
      4,   79.1117706,   41.2085762,           0.
      5,   80.1897583,   38.6060829,           0.
      6,    82.792244,   37.5280952,           0.
      7,   85.3947372,   38.6060829,           0.
      8,   86.4727249,   41.2085762,           0.
      9,   29.3819637,   56.7021904,           0.
     10,   27.3063965,   58.2101784,           0.
     11,   24.7408524,   58.2101784,           0.
     12,   22.6652851,   56.7021904,           0.
     13,    21.872488,   54.2622147,           0.
     14,   22.6652851,   51.8222351,           0.
     15,   24.7408524,   50.3142471,           0.
     16,   27.3063965,   50.3142471,           0.
     17,   29.3819637,   51.8222351,           0.
     18,   30.1747608,   54.2622147,           0.
     19,   61.6623993,   8.12132072,           0.
     20,   59.5410805,           9.,           0.
** ... 4060 like lines cut
*Element, type=C3D8R
   1,  197,  121,  120,  183, 1557, 1481, 1480, 1543
   2,  245,  122,  121,  197, 1605, 1482, 1481, 1557
   3,  246,  128,  127,  184, 1606, 1488, 1487, 1544
   4,  560,  434,  438,  553, 1920, 1794, 1798, 1913
   5,  278,   27,   34,  165, 1638, 1387, 1394, 1525
   6,  390,  385,  475,  482, 1750, 1745, 1835, 1842
   7,  765,  831,  794,  696, 2125, 2191, 2154, 2056
   8,  480,  162,   20,  272, 1840, 1522, 1380, 1632
   9,  327,  199,  198,  293, 1687, 1559, 1558, 1653
  10,   22,   21,  271,  155, 1382, 1381, 1631, 1515
  11,  377,  156,   31,  275, 1737, 1516, 1391, 1635
  12,  492,  271,  162,  380, 1852, 1631, 1522, 1740
  13, 1239,  481,  379,  505, 2599, 1841, 1739, 1865
  14,  275,   31,   30,  276, 1635, 1391, 1390, 1636
  15,  421,  427,  359,  358, 1781, 1787, 1719, 1718
  16,   10,  170, 1214,   11, 1370, 1530, 2574, 1371
  17,  250,  132,  131,  187, 1610, 1492, 1491, 1547
  18,  237,  111,  110,  236, 1597, 1471, 1470, 1596
  19, 1210,  177,  279, 1215, 2570, 1537, 1639, 2575
  20,  146,  294,  194,  147, 1506, 1654, 1554, 1507
** ... 2552 like lines cut
*Nset, nset=Batset, generate
    1,  4080,     1
*Elset, elset=Batset, generate
    1,  2572,     1
*Elset, elset=_BatTop_S2, internal, generate
 1287,  2572,     1
*Surface, type=ELEMENT, name=BatTop
_BatTop_S2, S2
*Elset, elset=_BatBot_S1, internal, generate
    1,  1286,     1
*Surface, type=ELEMENT, name=BatBot
_BatBot_S1, S1
*Elset, elset=_Battery-rivet-0_S4, internal
    5,   14,  118,  141,  143,  147, 1291, 1300, 1404, 1427, 1429, 1433
*Elset, elset=_Battery-rivet-0_S3, internal
   44,   45, 1330, 1331
*Surface, type=ELEMENT, name=Battery-rivet-0
_Battery-rivet-0_S4, S4
_Battery-rivet-0_S3, S3
*Elset, elset=_Battery-rivet-1_S3, internal
   10,   34, 1296, 1320
*Elset, elset=_Battery-rivet-1_S6, internal
   52,   55, 1338, 1341
*Elset, elset=_Battery-rivet-1_S4, internal
   54,  148,  149,  153, 1340, 1434, 1435, 1439
*Surface, type=ELEMENT, name=Battery-rivet-1
_Battery-rivet-1_S3, S3
_Battery-rivet-1_S6, S6
_Battery-rivet-1_S4, S4
*Elset, elset=_Battery-rivet-2_S6, internal
   16, 1302
*Elset, elset=_Battery-rivet-2_S3, internal
   73,   86,  100, 1359, 1372, 1386
*Elset, elset=_Battery-rivet-2_S4, internal
   89,  142,  160, 1375, 1428, 1446
*Elset, elset=_Battery-rivet-2_S5, internal
  139,  158,  162, 1425, 1444, 1448
*Surface, type=ELEMENT, name=Battery-rivet-2
_Battery-rivet-2_S6, S6
_Battery-rivet-2_S3, S3
_Battery-rivet-2_S4, S4
_Battery-rivet-2_S5, S5
*Elset, elset=_Battery-rivet-3_S4, internal
   23,  138,  171, 1309, 1424, 1457
*Elset, elset=_Battery-rivet-3_S3, internal
   43, 1329
*Elset, elset=_Battery-rivet-3_S5, internal
  124,  173,  182, 1410, 1459, 1468
*Elset, elset=_Battery-rivet-3_S6, internal
  155, 1441
*Surface, type=ELEMENT, name=Battery-rivet-3
_Battery-rivet-3_S4, S4
_Battery-rivet-3_S3, S3
_Battery-rivet-3_S6, S6
_Battery-rivet-3_S5, S5
*Orientation, name=Ori-1
1., 0., 0., 0., 1., 0.
3, 0.
** Section: BatOrtho
*Solid Section, elset=Batset, orientation=Ori-1, material=BatOrtho
,
*End Part
**  
*Part, name=CF
*Node
      1,         52.5,           0.,           0.
      2,         52.5,         110.,           0.
      3,           0.,         110.,           0.
      4,           0.,           0.,           0.
      5,         57.5,           0.,           0.
      6,         57.5,         110.,           0.
      7,         110.,           0.,           0.
      8,         110.,         110.,           0.
      9,         52.5,   2.97297287,           0.
     10,         52.5,   5.94594574,           0.
     11,         52.5,   8.91891861,           0.
     12,         52.5,   11.8918915,           0.
     13,         52.5,   14.8648653,           0.
     14,         52.5,   17.8378372,           0.
     15,         52.5,   20.8108101,           0.
     16,         52.5,    23.783783,           0.
     17,         52.5,   26.7567558,           0.
     18,         52.5,   29.7297306,           0.
     19,         52.5,   32.7027016,           0.
     20,         52.5,   35.6756744,           0.
** ... 1462 like lines cut
*Element, type=S4R
  1,   1,   9, 223, 114
  2,   9,  10, 224, 223
  3,  10,  11, 225, 224
  4,  11,  12, 226, 225
  5,  12,  13, 227, 226
  6,  13,  14, 228, 227
  7,  14,  15, 229, 228
  8,  15,  16, 230, 229
  9,  16,  17, 231, 230
 10,  17,  18, 232, 231
 11,  18,  19, 233, 232
 12,  19,  20, 234, 233
 13,  20,  21, 235, 234
 14,  21,  22, 236, 235
 15,  22,  23, 237, 236
 16,  23,  24, 238, 237
 17,  24,  25, 239, 238
 18,  25,  26, 240, 239
 19,  26,  27, 241, 240
 20,  27,  28, 242, 241
** ... 1386 like lines cut
*Nset, nset=CF_set, generate
    1,  1482,     1
*Elset, elset=CF_set, generate
    1,  1406,     1
*Elset, elset=_CFtop_SPOS, internal, generate
    1,  1406,     1
*Surface, type=ELEMENT, name=CFtop
_CFtop_SPOS, SPOS
*Elset, elset=_CFbot_SNEG, internal, generate
    1,  1406,     1
*Surface, type=ELEMENT, name=CFbot
_CFbot_SNEG, SNEG
** Section: CF_sec
*Shell Section, elset=CF_set, composite
0.2, 3, CF_material, 0.
0.2, 3, CF_material, 90.
0.2, 3, CF_material, 90.
0.2, 3, CF_material, 0.
*End Part
**  
*Part, name=Polymer
*Node
      1,   40.1747627,   64.2622147,           0.
      2,   40.1747627,   64.2622147,           5.
      3,   81.0781784,   54.1338882,           0.
      4,   81.0781784,   54.1338882,           5.
      5,          10.,         100.,           0.
      6,          10.,          10.,           0.
      7,         100.,          10.,           0.
      8,         100.,         100.,           0.
      9,         110.,           0.,           0.
     10,           0.,           0.,           0.
     11,           0.,         110.,           0.
     12,         110.,         110.,           0.
     13,          10.,          10.,           5.
     14,          10.,         100.,           5.
     15,         100.,         100.,           5.
     16,         100.,          10.,           5.
     17,           0.,         110.,           5.
     18,           0.,           0.,           5.
     19,         110.,           0.,           5.
     20,         110.,         110.,           5.
** ... 2119 like lines cut
*Element, type=C3D8R
 1,  633,  632, 1729,  634,   32,   31,  613,   33
 2, 1729, 1733, 1730, 1731,  613,  617,  614,  615
 3, 1734, 1732, 1731, 1730,  618,  616,  615,  614
 4, 1731,  625,  634, 1729,  615,    1,   33,  613
 5, 1733, 1729,  632,  631,  617,  613,   31,   30
 6,  630, 1730, 1733,  631,   29,  614,  617,   30
 7, 1734,  629,  628, 1732,  618,   28,   27,  616
 8, 1732,  628,  627,  626,  616,   27,   26,   25
 9,  626,  625, 1731, 1732,   25,    1,  615,  616
10,  630,  629, 1734, 1730,   29,   28,  618,  614
11,   35,   36,  619,   34,  633,  632, 1729,  634
12,  619,  623,  620,  621, 1729, 1733, 1730, 1731
13,  624,  622,  621,  620, 1734, 1732, 1731, 1730
14,  621,    2,   34,  619, 1731,  625,  634, 1729
15,  623,  619,   36,   37, 1733, 1729,  632,  631
16,   38,  620,  623,   37,  630, 1730, 1733,  631
17,  624,   39,   40,  622, 1734,  629,  628, 1732
18,  622,   40,   41,   42, 1732,  628,  627,  626
19,   42,    2,  621,  622,  626,  625, 1731, 1732
20,   38,   39,  624,  620,  630,  629, 1734, 1730
** ... 1096 like lines cut
*Nset, nset=PolySet
    5,    6,    7,    8,    9,   10,   11,   12,   13,   14,   15,   16,   17,   18,   19,   20
   57,   58,   59,   60,   61,   62,   63,   64,   65,   66,   67,   68,   69,   70,   71,   72
   73,   74,   75,   76,   77,   78,   79,   80,   81,   82,   83,   84,   85,   86,   87,   88
   89,   90,   91,   92,   93,   94,   95,   96,   97,   98,   99,  100,  101,  102,  103,  104
  105,  106,  107,  108,  109,  110,  111,  112,  113,  114,  115,  116,  117,  118,  119,  120
  121,  122,  123,  124,  125,  126,  127,  128,  129,  130,  131,  132,  133,  134,  135,  136
  137,  138,  139,  140,  141,  142,  143,  144,  145,  146,  147,  148,  149,  150,  151,  152
  153,  154,  155,  156,  157,  158,  159,  160,  161,  162,  163,  164,  165,  166,  167,  168
  169,  170,  171,  172,  173,  174,  175,  176,  177,  178,  179,  180,  181,  182,  183,  184
  185,  186,  187,  188,  189,  190,  191,  192,  193,  194,  195,  196,  197,  198,  199,  200
  201,  202,  203,  204,  205,  206,  207,  208,  209,  210,  211,  212,  213,  214,  215,  216
  217,  218,  219,  220,  221,  222,  223,  224,  225,  226,  227,  228,  229,  230,  231,  232
  233,  234,  235,  236,  237,  238,  239,  240,  241,  242,  243,  244,  245,  246,  247,  248
  249,  250,  251,  252,  253,  254,  255,  256,  257,  258,  259,  260,  261,  262,  263,  264
  265,  266,  267,  268,  269,  270,  271,  272,  273,  274,  275,  276,  277,  278,  279,  280
  281,  282,  283,  284,  285,  286,  287,  288,  289,  290,  291,  292,  293,  294,  295,  296
  297,  298,  299,  300,  301,  302,  303,  304,  305,  306,  307,  308,  309,  310,  311,  312
  313,  314,  315,  316,  317,  318,  319,  320,  321,  322,  323,  324,  325,  326,  327,  328
  329,  330,  331,  332,  333,  334,  335,  336,  337,  338,  339,  340,  341,  342,  343,  344
  345,  346,  347,  348,  349,  350,  351,  352,  353,  354,  355,  356,  357,  358,  359,  360
** ... 106 like lines cut
*Elset, elset=PolySet, generate
   29,  1100,     1
*Nset, nset=_PickedSet12, internal
    3,    4,   43,   44,   45,   46,   47,   48,   49,   50,   51,   52,   53,   54,   55,   56
  635,  636,  637,  638,  639,  640,  641,  642,  643,  644, 1735
*Elset, elset=_PickedSet12, internal, generate
 21,  28,   1
*Nset, nset=_PickedSet17, internal
   21,   22,  585,  586,  587,  588,  589,  590,  591,  592,  593,  594,  595,  596,  597,  598
 1709, 1710, 1711, 1712, 1713, 1714, 1715, 1716, 1717, 1718, 2138
*Elset, elset=_PickedSet17, internal, generate
 1101,  1108,     1
*Nset, nset=_PickedSet22, internal
    1,    2,   25,   26,   27,   28,   29,   30,   31,   32,   33,   34,   35,   36,   37,   38
   39,   40,   41,   42,  613,  614,  615,  616,  617,  618,  619,  620,  621,  622,  623,  624
  625,  626,  627,  628,  629,  630,  631,  632,  633,  634, 1729, 1730, 1731, 1732, 1733, 1734
*Elset, elset=_PickedSet22, internal, generate
  1,  20,   1
*Nset, nset=_PickedSet27, internal
   23,   24,  599,  600,  601,  602,  603,  604,  605,  606,  607,  608,  609,  610,  611,  612
 1719, 1720, 1721, 1722, 1723, 1724, 1725, 1726, 1727, 1728, 2139
*Elset, elset=_PickedSet27, internal, generate
 1109,  1116,     1
*Elset, elset=_PolyTop_S2, internal, generate
  565,  1100,     1
*Surface, type=ELEMENT, name=PolyTop
_PolyTop_S2, S2
*Elset, elset=_PolyBot_S1, internal, generate
  29,  564,    1
*Surface, type=ELEMENT, name=PolyBot
_PolyBot_S1, S1
*Elset, elset=_Polymer-rivet-0_S3, internal
 21, 22, 23, 25, 26, 27
*Elset, elset=_Polymer-rivet-0_S6, internal
 21, 22, 23, 25, 26, 27
*Elset, elset=_Polymer-rivet-0_S4, internal
 24, 28
*Elset, elset=_Polymer-rivet-0_S5, internal
 24, 28
*Surface, type=ELEMENT, name=Polymer-rivet-0
_Polymer-rivet-0_S3, S3
_Polymer-rivet-0_S6, S6
_Polymer-rivet-0_S4, S4
_Polymer-rivet-0_S5, S5
*Elset, elset=_Polymer-rivet-top-0_S1, internal, generate
 25,  28,   1
*Surface, type=ELEMENT, name=Polymer-rivet-top-0
_Polymer-rivet-top-0_S1, S1
*Elset, elset=_Polymer-rivet-bot-0_S2, internal, generate
 21,  24,   1
*Surface, type=ELEMENT, name=Polymer-rivet-bot-0
_Polymer-rivet-bot-0_S2, S2
*Elset, elset=_Polymer-rivet-1_S4, internal
 1101, 1104, 1105, 1108
*Elset, elset=_Polymer-rivet-1_S5, internal
 1101, 1104, 1105, 1108
*Elset, elset=_Polymer-rivet-1_S3, internal
 1102, 1103, 1106, 1107
*Elset, elset=_Polymer-rivet-1_S6, internal
 1102, 1103, 1106, 1107
*Surface, type=ELEMENT, name=Polymer-rivet-1
_Polymer-rivet-1_S4, S4
_Polymer-rivet-1_S5, S5
_Polymer-rivet-1_S6, S6
_Polymer-rivet-1_S3, S3
*Elset, elset=_Polymer-rivet-top-1_S1, internal, generate
 1105,  1108,     1
*Surface, type=ELEMENT, name=Polymer-rivet-top-1
_Polymer-rivet-top-1_S1, S1
*Elset, elset=_Polymer-rivet-bot-1_S2, internal, generate
 1101,  1104,     1
*Surface, type=ELEMENT, name=Polymer-rivet-bot-1
_Polymer-rivet-bot-1_S2, S2
*Elset, elset=_Polymer-rivet-2_S3, internal
  1,  9, 10, 11, 19, 20
*Elset, elset=_Polymer-rivet-2_S6, internal, generate
  1,  16,   5
*Elset, elset=_Polymer-rivet-2_S4, internal
  4,  7,  8, 14, 17, 18
*Elset, elset=_Polymer-rivet-2_S5, internal
  5,  8, 15, 18
*Surface, type=ELEMENT, name=Polymer-rivet-2
_Polymer-rivet-2_S3, S3
_Polymer-rivet-2_S6, S6
_Polymer-rivet-2_S4, S4
_Polymer-rivet-2_S5, S5
*Elset, elset=_Polymer-rivet-top-2_S1, internal, generate
 11,  20,   1
*Surface, type=ELEMENT, name=Polymer-rivet-top-2
_Polymer-rivet-top-2_S1, S1
*Elset, elset=_Polymer-rivet-bot-2_S2, internal, generate
  1,  10,   1
*Surface, type=ELEMENT, name=Polymer-rivet-bot-2
_Polymer-rivet-bot-2_S2, S2
*Elset, elset=_Polymer-rivet-3_S4, internal
 1109, 1112, 1113, 1116
*Elset, elset=_Polymer-rivet-3_S5, internal
 1109, 1112, 1113, 1116
*Elset, elset=_Polymer-rivet-3_S3, internal
 1110, 1111, 1114, 1115
*Elset, elset=_Polymer-rivet-3_S6, internal
 1110, 1111, 1114, 1115
*Surface, type=ELEMENT, name=Polymer-rivet-3
_Polymer-rivet-3_S4, S4
_Polymer-rivet-3_S5, S5
_Polymer-rivet-3_S6, S6
_Polymer-rivet-3_S3, S3
*Elset, elset=_Polymer-rivet-top-3_S1, internal, generate
 1113,  1116,     1
*Surface, type=ELEMENT, name=Polymer-rivet-top-3
_Polymer-rivet-top-3_S1, S1
*Elset, elset=_Polymer-rivet-bot-3_S2, internal, generate
 1109,  1112,     1
*Surface, type=ELEMENT, name=Polymer-rivet-bot-3
_Polymer-rivet-bot-3_S2, S2
** Section: PolySec
*Solid Section, elset=_PickedSet22, material=Polymer
,
** Section: PolySec
*Solid Section, elset=_PickedSet12, material=Polymer
,
** Section: PolySec
*Solid Section, elset=PolySet, material=Polymer
,
** Section: PolySec
*Solid Section, elset=_PickedSet17, material=Polymer
,
** Section: PolySec
*Solid Section, elset=_PickedSet27, material=Polymer
,
*End Part
**  
**
** ASSEMBLY
**
*Assembly, name=Assembly
**  
*Instance, name=Polymer-1, part=Polymer
*End Instance
**  
*Instance, name=Battery-1, part=Battery
         10.,          10.,           0.
*End Instance
**  
*Instance, name=CF-1, part=CF
          0.,           0.,         -0.4
*End Instance
**  
*Instance, name=CF-2, part=CF
          0.,           0.,          5.4
*End Instance
**  
*Node
      1,          55.,          55.,    5.4000001
*Nset, nset=VerticalSupport, instance=CF-1
   3,   4,   7,   8,  62,  63,  64,  65,  66,  67,  68,  69,  70,  71,  72,  73
  74,  75,  76,  77,  78,  79,  80,  81,  82,  83,  84,  85,  86,  87,  88,  89
  90,  91,  92,  93,  94,  95,  96,  97, 170, 171, 172, 173, 174, 175, 176, 177
 178, 179, 180, 181, 182, 183, 184, 185, 186, 187, 188, 189, 190, 191, 192, 193
 194, 195, 196, 197, 198, 199, 200, 201, 202, 203, 204, 205
*Elset, elset=VerticalSupport, instance=CF-1
  630,  631,  632,  633,  634,  635,  636,  637,  638,  639,  640,  641,  642,  643,  644,  645
  646,  647,  648,  649,  650,  651,  652,  653,  654,  655,  656,  657,  658,  659,  660,  661
  662,  663,  664,  665,  666, 1370, 1371, 1372, 1373, 1374, 1375, 1376, 1377, 1378, 1379, 1380
 1381, 1382, 1383, 1384, 1385, 1386, 1387, 1388, 1389, 1390, 1391, 1392, 1393, 1394, 1395, 1396
 1397, 1398, 1399, 1400, 1401, 1402, 1403, 1404, 1405, 1406
*Nset, nset=XDirSupport, instance=CF-1
 3,
*Nset, nset=YDirSupport, instance=CF-1
 7,
*Nset, nset=rigid_loading_set, instance=CF-2
   1,   2,   5,   6,   9,  10,  11,  12,  13,  14,  15,  16,  17,  18,  19,  20
  21,  22,  23,  24,  25,  26,  27,  28,  29,  30,  31,  32,  33,  34,  35,  36
  37,  38,  39,  40,  41,  42,  43,  44, 115, 116, 117, 118, 119, 120, 121, 122
 123, 124, 125, 126, 127, 128, 129, 130, 131, 132, 133, 134, 135, 136, 137, 138
 139, 140, 141, 142, 143, 144, 145, 146, 147, 148, 149, 150, 151, 152, 835, 836
 837, 838, 839, 840, 841, 842, 843, 844, 845, 846, 847, 848, 849, 850, 851, 852
 853, 854, 855, 856, 857, 858, 859, 860, 861, 862, 863, 864, 865, 866, 867, 868
 869, 870
*Elset, elset=rigid_loading_set, instance=CF-2, generate
 667,  740,    1
*Nset, nset=_PickedSet14, internal
 1,
*Elset, elset=__PickedSurf15_SPOS, internal, instance=CF-2, generate
 667,  740,    1
*Surface, type=ELEMENT, name=_PickedSurf15, internal
__PickedSurf15_SPOS, SPOS
** Constraint: BatPoly-0
*Tie, name=BatPoly-0, adjust=no, position tolerance=1.
Battery-1.Battery-rivet-0, Polymer-1.Polymer-rivet-0
** Constraint: BatPoly-1
*Tie, name=BatPoly-1, adjust=no, position tolerance=1.
Battery-1.Battery-rivet-1, Polymer-1.Polymer-rivet-1
** Constraint: BatPoly-2
*Tie, name=BatPoly-2, adjust=no, position tolerance=1.
Battery-1.Battery-rivet-2, Polymer-1.Polymer-rivet-2
** Constraint: BatPoly-3
*Tie, name=BatPoly-3, adjust=no, position tolerance=1.
Battery-1.Battery-rivet-3, Polymer-1.Polymer-rivet-3
** Constraint: CF1Poly
*Tie, name=CF1Poly, adjust=no, position tolerance=1.
Polymer-1.PolyBot, CF-1.CFtop
** Constraint: CF1Poly-Rivet-0
*Tie, name=CF1Poly-Rivet-0, adjust=no, position tolerance=1.
Polymer-1.Polymer-rivet-bot-0, CF-1.CFtop
** Constraint: CF1Poly-Rivet-1
*Tie, name=CF1Poly-Rivet-1, adjust=no, position tolerance=1.
Polymer-1.Polymer-rivet-bot-1, CF-1.CFtop
** Constraint: CF1Poly-Rivet-2
*Tie, name=CF1Poly-Rivet-2, adjust=no, position tolerance=1.
Polymer-1.Polymer-rivet-bot-2, CF-1.CFtop
** Constraint: CF1Poly-Rivet-3
*Tie, name=CF1Poly-Rivet-3, adjust=no, position tolerance=1.
Polymer-1.Polymer-rivet-bot-3, CF-1.CFtop
** Constraint: CF2Poly
*Tie, name=CF2Poly, adjust=no, position tolerance=1.
Polymer-1.PolyTop, CF-2.CFbot
** Constraint: CF2Poly-Rivet-0
*Tie, name=CF2Poly-Rivet-0, adjust=no, position tolerance=1.
Polymer-1.Polymer-rivet-top-0, CF-2.CFbot
** Constraint: CF2Poly-Rivet-1
*Tie, name=CF2Poly-Rivet-1, adjust=no, position tolerance=1.
Polymer-1.Polymer-rivet-top-1, CF-2.CFbot
** Constraint: CF2Poly-Rivet-2
*Tie, name=CF2Poly-Rivet-2, adjust=no, position tolerance=1.
Polymer-1.Polymer-rivet-top-2, CF-2.CFbot
** Constraint: CF2Poly-Rivet-3
*Tie, name=CF2Poly-Rivet-3, adjust=no, position tolerance=1.
Polymer-1.Polymer-rivet-top-3, CF-2.CFbot
** Constraint: LoadingRigidBody
*Rigid Body, ref node=_PickedSet14, tie nset=rigid_loading_set
*End Assembly
** 
** MATERIALS
** 
*Material, name=BatOrtho
*Elastic, type=ENGINEERING CONSTANTS
1090., 109., 500., 0.15, 0.15, 0.15, 474., 474.
 474.,
*Material, name=CF_material
*Elastic, type=ENGINEERING CONSTANTS
30420.,  4023.,  4023.,   0.29,   0.29, 0.3928,  2081.,  2081.
  1440.,
*Material, name=Polymer
*Elastic
500., 0.3
** 
** INTERACTION PROPERTIES
** 
*Surface Interaction, name=NormCont
1.,
*Friction, slip tolerance=0.005
 0.3,
*Surface Behavior, pressure-overclosure=HARD
** 
** INTERACTIONS
** 
** Interaction: CF1Bat
*Contact Pair, interaction=NormCont, type=SURFACE TO SURFACE
Battery-1.BatBot, CF-1.CFtop
** Interaction: CF2Bat
*Contact Pair, interaction=NormCont, type=SURFACE TO SURFACE
Battery-1.BatTop, CF-2.CFbot
** ----------------------------------------------------------------
** 
** STEP: Loading
** 
*Step, name=Loading, nlgeom=NO
*Static
1., 1., 1e-05, 1.
** 
** BOUNDARY CONDITIONS
** 
** Name: VerticalSupport Type: Displacement/Rotation
*Boundary
VerticalSupport, 3, 3
** Name: XDirSupport Type: Displacement/Rotation
*Boundary
XDirSupport, 1, 1
** Name: YDirSupport Type: Displacement/Rotation
*Boundary
YDirSupport, 2, 2
** 
** LOADS
** 
** Name: Load-1   Type: Pressure
*Dsload
_PickedSurf15, P, 0.181818
** 
** OUTPUT REQUESTS
** 
*Restart, write, frequency=0
** 
** FIELD OUTPUT: F-Output-1
** 
*Output, field
*Node Output
U, UR, UT
*Element Output, directions=YES
EVOL, 
** 
** HISTORY OUTPUT: H-Output-1
** 
*Output, history, variable=PRESELECT
*End Step
