*Heading
** Job name: Job-11 Model name: Model-1
** Generated by: Abaqus/CAE 2019
*Preprint, echo=NO, model=NO, history=NO, contact=NO
**
** PARTS
**
*Part, name=Battery
*Node
      1,   37.9748993,   12.0168991,           0.
      2,   36.2299881,   14.2049494,           0.
      3,    33.708519,   15.4192257,           0.
      4,   28.3884258,   14.2049494,           0.
      5,   26.6435146,   12.0168991,           0.
      6,   26.0207615,   9.28844452,           0.
      7,   26.6435146,   6.55999088,           0.
      8,   28.3884258,   4.37194061,           0.
      9,   30.9098969,   3.15766454,           0.
     10,   36.2299881,   4.37194061,           0.
     11,   37.9748993,   6.55999088,           0.
     12,   38.5976524,   9.28844452,           0.
     13,   37.0167542,   24.3722191,           0.
     14,   34.8954353,   25.2508984,           0.
     15,   32.7741165,   24.3722191,           0.
     16,   31.8954353,   22.2508984,           0.
     17,   32.7741165,   20.1295776,           0.
     18,   34.8954353,   19.2508984,           0.
     19,   37.0167542,   20.1295776,           0.
     20,   37.8954353,   22.2508984,           0.
** ... 3466 like lines cut
*Element, type=C3D8R
   1,  411,  182,   20,   19, 1573, 1344, 1182, 1181
   2,  411,   19,   18,  184, 1573, 1181, 1180, 1346
   3,    2,  184,  179,    3, 1164, 1346, 1341, 1165
   4,   51,  410, 1065,  191, 1213, 1572, 2227, 1353
   5,  410,  179, 1062, 1063, 1572, 1341, 2224, 2225
   6, 1065,  410, 1063, 1064, 2227, 1572, 2225, 2226
   7,  663,  186,    6,  188, 1825, 1348, 1168, 1350
   8,  336,  327,  214,  246, 1498, 1489, 1376, 1408
   9,  366,  373,  213,  236, 1528, 1535, 1375, 1398
  10,  215,   93,   92,  214, 1377, 1255, 1254, 1376
  11,    6,    5,  187,  188, 1168, 1167, 1349, 1350
  12,  250,  100,   99,  249, 1412, 1262, 1261, 1411
  13,  494,  314,  180,  415, 1656, 1476, 1342, 1577
  14,  180,  495,  501,  415, 1342, 1657, 1663, 1577
  15,  314,   14,   13,  180, 1476, 1176, 1175, 1342
  16,  588,  177,   13,   20, 1750, 1339, 1175, 1182
  17,   13,  177,  495,  180, 1175, 1339, 1657, 1342
  18,   20,  182,  577,  588, 1182, 1344, 1739, 1750
  19,   85,  245,  222,   86, 1247, 1407, 1384, 1248
  20,   83,  323,  358,   84, 1245, 1485, 1520, 1246
** ... 2134 like lines cut
*Nset, nset=Batset, generate
    1,  3486,     1
*Elset, elset=Batset, generate
    1,  2154,     1
*Elset, elset=_BatTop_S2, internal, generate
 1078,  2154,     1
*Surface, type=ELEMENT, name=BatTop
_BatTop_S2, S2
*Elset, elset=_BatBot_S1, internal, generate
    1,  1077,     1
*Surface, type=ELEMENT, name=BatBot
_BatBot_S1, S1
*Elset, elset=_Battery-rivet-0_S4, internal
   38,   97,  109,  185,  186,  189,  192, 1115, 1174, 1186, 1262, 1263, 1266, 1269
*Elset, elset=_Battery-rivet-0_S3, internal
   47,  106,  113,  116,  191, 1124, 1183, 1190, 1193, 1268
*Elset, elset=_Battery-rivet-0_S5, internal
   60,  123,  172,  187,  193, 1137, 1200, 1249, 1264, 1270
*Elset, elset=_Battery-rivet-0_S6, internal
  118,  195,  206, 1195, 1272, 1283
*Surface, type=ELEMENT, name=Battery-rivet-0
_Battery-rivet-0_S4, S4
_Battery-rivet-0_S3, S3
_Battery-rivet-0_S6, S6
_Battery-rivet-0_S5, S5
*Elset, elset=_Battery-rivet-1_S3, internal
   68,  173,  188, 1145, 1250, 1265
*Elset, elset=_Battery-rivet-1_S6, internal
  127, 1204
*Elset, elset=_Battery-rivet-1_S4, internal
  297,  299,  302,  303,  305,  307, 1374, 1376, 1379, 1380, 1382, 1384
*Elset, elset=_Battery-rivet-1_S5, internal
  298,  300,  301,  304, 1375, 1377, 1378, 1381
*Surface, type=ELEMENT, name=Battery-rivet-1
_Battery-rivet-1_S3, S3
_Battery-rivet-1_S6, S6
_Battery-rivet-1_S4, S4
_Battery-rivet-1_S5, S5
*Elset, elset=_Battery-rivet-2_S5, internal
    1,   16, 1078, 1093
*Elset, elset=_Battery-rivet-2_S4, internal
    2,   15,  164,  167, 1079, 1092, 1241, 1244
*Elset, elset=_Battery-rivet-2_S3, internal
   30,  409, 1107, 1486
*Surface, type=ELEMENT, name=Battery-rivet-2
_Battery-rivet-2_S5, S5
_Battery-rivet-2_S4, S4
_Battery-rivet-2_S3, S3
*Elset, elset=_Battery-rivet-3_S6, internal
    3,   73,   76,  165, 1080, 1150, 1153, 1242
*Elset, elset=_Battery-rivet-3_S3, internal
   11,   29,   78,   79, 1088, 1106, 1155, 1156
*Elset, elset=_Battery-rivet-3_S4, internal
   53,   75,  174,  176, 1130, 1152, 1251, 1253
*Elset, elset=_Battery-rivet-3_S5, internal
   70,  169, 1147, 1246
*Surface, type=ELEMENT, name=Battery-rivet-3
_Battery-rivet-3_S6, S6
_Battery-rivet-3_S3, S3
_Battery-rivet-3_S4, S4
_Battery-rivet-3_S5, S5
*Orientation, name=Ori-1
1., 0., 0., 0., 1., 0.
3, 0.
** Section: BatOrtho
*Solid Section, elset=Batset, orientation=Ori-1, material=BatOrtho
,
*End Part
**  
*Part, name=CF
*Node
      1,         52.5,           0.,           0.
      2,         52.5,         110.,           0.
      3,           0.,         110.,           0.
      4,           0.,           0.,           0.
      5,         57.5,           0.,           0.
      6,         57.5,         110.,           0.
      7,         110.,           0.,           0.
      8,         110.,         110.,           0.
      9,         52.5,   2.97297287,           0.
     10,         52.5,   5.94594574,           0.
     11,         52.5,   8.91891861,           0.
     12,         52.5,   11.8918915,           0.
     13,         52.5,   14.8648653,           0.
     14,         52.5,   17.8378372,           0.
     15,         52.5,   20.8108101,           0.
     16,         52.5,    23.783783,           0.
     17,         52.5,   26.7567558,           0.
     18,         52.5,   29.7297306,           0.
     19,         52.5,   32.7027016,           0.
     20,         52.5,   35.6756744,           0.
** ... 1462 like lines cut
*Element, type=S4R
  1,   1,   9, 223, 114
  2,   9,  10, 224, 223
  3,  10,  11, 225, 224
  4,  11,  12, 226, 225
  5,  12,  13, 227, 226
  6,  13,  14, 228, 227
  7,  14,  15, 229, 228
  8,  15,  16, 230, 229
  9,  16,  17, 231, 230
 10,  17,  18, 232, 231
 11,  18,  19, 233, 232
 12,  19,  20, 234, 233
 13,  20,  21, 235, 234
 14,  21,  22, 236, 235
 15,  22,  23, 237, 236
 16,  23,  24, 238, 237
 17,  24,  25, 239, 238
 18,  25,  26, 240, 239
 19,  26,  27, 241, 240
 20,  27,  28, 242, 241
** ... 1386 like lines cut
*Nset, nset=CF_set, generate
    1,  1482,     1
*Elset, elset=CF_set, generate
    1,  1406,     1
*Elset, elset=_CFtop_SPOS, internal, generate
    1,  1406,     1
*Surface, type=ELEMENT, name=CFtop
_CFtop_SPOS, SPOS
*Elset, elset=_CFbot_SNEG, internal, generate
    1,  1406,     1
*Surface, type=ELEMENT, name=CFbot
_CFbot_SNEG, SNEG
** Section: CF_sec
*Shell Section, elset=CF_set, composite
0.2, 3, CF_material, 0.
0.2, 3, CF_material, 90.
0.2, 3, CF_material, 90.
0.2, 3, CF_material, 0.
*End Part
**  
*Part, name=Polymer
*Node
      1,   47.8954353,   32.2508965,           0.
      2,   47.8954353,   32.2508965,           5.
      3,   38.9676056,   80.4424744,           0.
      4,   38.9676056,   80.4424744,           5.
      5,          10.,         100.,           0.
      6,          10.,          10.,           0.
      7,         100.,          10.,           0.
      8,         100.,         100.,           0.
      9,         110.,           0.,           0.
     10,           0.,           0.,           0.
     11,           0.,         110.,           0.
     12,         110.,         110.,           0.
     13,          10.,          10.,           5.
     14,          10.,         100.,           5.
     15,         100.,         100.,           5.
     16,         100.,          10.,           5.
     17,           0.,         110.,           5.
     18,           0.,           0.,           5.
     19,         110.,           0.,           5.
     20,         110.,         110.,           5.
** ... 2428 like lines cut
*Element, type=C3D8R
1, 1957,  659,  666,  665,  657,    1,   31,   30
2,  660,  659, 1957,  661,   25,    1,  657,   26
3,  662,  661, 1957,  663,   27,   26,  657,   28
4, 1957,  665,  664,  663,  657,   30,   29,   28
5,  658,    2,   32,   33, 1957,  659,  666,  665
6,   38,    2,  658,   37,  660,  659, 1957,  661
7,   36,   37,  658,   35,  662,  661, 1957,  663
8,  658,   33,   34,   35, 1957,  665,  664,  663
  9, 1974,  765,  764, 1959,  683,   54,   53,  668
 10, 1986,  763,  762, 1987,  695,   52,   51,  696
 11, 1973, 1989, 1976, 1980,  682,  698,  685,  689
 12, 1972, 1962, 1979, 1976,  681,  671,  688,  685
 13, 1979, 1982, 1985, 1983,  688,  691,  694,  692
 14, 1979, 1962, 1963, 1982,  688,  671,  672,  691
 15,  766, 1958, 1965,  767,   55,  667,  674,   56
 16, 1981, 1983, 1985, 1992,  690,  692,  694,  701
 17, 1992, 1969, 1968, 1981,  701,  678,  677,  690
 18, 1978, 1993, 1980, 1983,  687,  702,  689,  692
 19,  751, 1967, 1966,  752,   40,  676,  675,   41
 20, 1976, 1989, 1961, 1972,  685,  698,  670,  681
** ... 1280 like lines cut
*Nset, nset=PolySet
    5,    6,    7,    8,    9,   10,   11,   12,   13,   14,   15,   16,   17,   18,   19,   20
   77,   78,   79,   80,   81,   82,   83,   84,   85,   86,   87,   88,   89,   90,   91,   92
   93,   94,   95,   96,   97,   98,   99,  100,  101,  102,  103,  104,  105,  106,  107,  108
  109,  110,  111,  112,  113,  114,  115,  116,  117,  118,  119,  120,  121,  122,  123,  124
  125,  126,  127,  128,  129,  130,  131,  132,  133,  134,  135,  136,  137,  138,  139,  140
  141,  142,  143,  144,  145,  146,  147,  148,  149,  150,  151,  152,  153,  154,  155,  156
  157,  158,  159,  160,  161,  162,  163,  164,  165,  166,  167,  168,  169,  170,  171,  172
  173,  174,  175,  176,  177,  178,  179,  180,  181,  182,  183,  184,  185,  186,  187,  188
  189,  190,  191,  192,  193,  194,  195,  196,  197,  198,  199,  200,  201,  202,  203,  204
  205,  206,  207,  208,  209,  210,  211,  212,  213,  214,  215,  216,  217,  218,  219,  220
  221,  222,  223,  224,  225,  226,  227,  228,  229,  230,  231,  232,  233,  234,  235,  236
  237,  238,  239,  240,  241,  242,  243,  244,  245,  246,  247,  248,  249,  250,  251,  252
  253,  254,  255,  256,  257,  258,  259,  260,  261,  262,  263,  264,  265,  266,  267,  268
  269,  270,  271,  272,  273,  274,  275,  276,  277,  278,  279,  280,  281,  282,  283,  284
  285,  286,  287,  288,  289,  290,  291,  292,  293,  294,  295,  296,  297,  298,  299,  300
  301,  302,  303,  304,  305,  306,  307,  308,  309,  310,  311,  312,  313,  314,  315,  316
  317,  318,  319,  320,  321,  322,  323,  324,  325,  326,  327,  328,  329,  330,  331,  332
  333,  334,  335,  336,  337,  338,  339,  340,  341,  342,  343,  344,  345,  346,  347,  348
  349,  350,  351,  352,  353,  354,  355,  356,  357,  358,  359,  360,  361,  362,  363,  364
  365,  366,  367,  368,  369,  370,  371,  372,  373,  374,  375,  376,  377,  378,  379,  380
** ... 106 like lines cut
*Elset, elset=PolySet, generate
  109,  1180,     1
*Nset, nset=_PickedSet12, internal
    3,    4,   39,   40,   41,   42,   43,   44,   45,   46,   47,   48,   49,   50,   51,   52
   53,   54,   55,   56,   57,   58,   59,   60,   61,   62,   63,   64,   65,   66,   67,   68
   69,   70,   71,   72,   73,   74,   75,   76,  667,  668,  669,  670,  671,  672,  673,  674
  675,  676,  677,  678,  679,  680,  681,  682,  683,  684,  685,  686,  687,  688,  689,  690
  691,  692,  693,  694,  695,  696,  697,  698,  699,  700,  701,  702,  703,  704,  705,  706
  707,  708,  709,  710,  711,  712,  713,  714,  715,  716,  717,  718,  719,  720,  721,  722
  723,  724,  725,  726,  727,  728,  729,  730,  731,  732,  733,  734,  735,  736,  737,  738
  739,  740,  741,  742,  743,  744,  745,  746,  747,  748,  749,  750,  751,  752,  753,  754
  755,  756,  757,  758,  759,  760,  761,  762,  763,  764,  765,  766,  767,  768, 1958, 1959
 1960, 1961, 1962, 1963, 1964, 1965, 1966, 1967, 1968, 1969, 1970, 1971, 1972, 1973, 1974, 1975
 1976, 1977, 1978, 1979, 1980, 1981, 1982, 1983, 1984, 1985, 1986, 1987, 1988, 1989, 1990, 1991
 1992, 1993, 1994, 1995, 1996, 1997, 1998
*Elset, elset=_PickedSet12, internal, generate
   9,  108,    1
*Nset, nset=_PickedSet17, internal
   21,   22,  605,  606,  607,  608,  609,  610,  611,  612,  613,  614,  615,  616,  617,  618
  619,  620,  621,  622,  623,  624,  625,  626,  627,  628,  629,  630, 1833, 1834, 1835, 1836
 1837, 1838, 1839, 1840, 1841, 1842, 1843, 1844, 1845, 1846, 1847, 1848, 1849, 1850, 1851, 1852
 1853, 1854, 1855, 1856, 1857, 1858, 1859, 1860, 1861, 1862, 1863, 1864, 1865, 1866, 1867, 1868
 1869, 1870, 1871, 1872, 1873, 1874, 1875, 1876, 1877, 1878, 1879, 1880, 1881, 1882, 1883, 1884
 1885, 1886, 1887, 1888, 1889, 1890, 1891, 1892, 1893, 1894, 2401, 2402, 2403, 2404, 2405, 2406
 2407, 2408, 2409, 2410, 2411, 2412, 2413, 2414, 2415, 2416, 2417, 2418, 2419, 2420, 2421, 2422
 2423, 2424
*Elset, elset=_PickedSet17, internal, generate
 1181,  1240,     1
*Nset, nset=_PickedSet22, internal
    1,    2,   25,   26,   27,   28,   29,   30,   31,   32,   33,   34,   35,   36,   37,   38
  657,  658,  659,  660,  661,  662,  663,  664,  665,  666, 1957
*Elset, elset=_PickedSet22, internal, generate
 1,  8,  1
*Nset, nset=_PickedSet27, internal
   23,   24,  631,  632,  633,  634,  635,  636,  637,  638,  639,  640,  641,  642,  643,  644
  645,  646,  647,  648,  649,  650,  651,  652,  653,  654,  655,  656, 1895, 1896, 1897, 1898
 1899, 1900, 1901, 1902, 1903, 1904, 1905, 1906, 1907, 1908, 1909, 1910, 1911, 1912, 1913, 1914
 1915, 1916, 1917, 1918, 1919, 1920, 1921, 1922, 1923, 1924, 1925, 1926, 1927, 1928, 1929, 1930
 1931, 1932, 1933, 1934, 1935, 1936, 1937, 1938, 1939, 1940, 1941, 1942, 1943, 1944, 1945, 1946
 1947, 1948, 1949, 1950, 1951, 1952, 1953, 1954, 1955, 1956, 2425, 2426, 2427, 2428, 2429, 2430
 2431, 2432, 2433, 2434, 2435, 2436, 2437, 2438, 2439, 2440, 2441, 2442, 2443, 2444, 2445, 2446
 2447, 2448
*Elset, elset=_PickedSet27, internal, generate
 1241,  1300,     1
*Elset, elset=_PolyTop_S2, internal, generate
  645,  1180,     1
*Surface, type=ELEMENT, name=PolyTop
_PolyTop_S2, S2
*Elset, elset=_PolyBot_S1, internal, generate
 109,  644,    1
*Surface, type=ELEMENT, name=PolyBot
_PolyBot_S1, S1
*Elset, elset=_Polymer-rivet-0_S4, internal
  9, 10, 22, 35, 36, 59, 60, 72, 85, 86
*Elset, elset=_Polymer-rivet-0_S6, internal
 15, 19, 32, 33, 34, 65, 69, 82, 83, 84
*Elset, elset=_Polymer-rivet-0_S3, internal
  23,  25,  26,  27,  28,  29,  30,  31,  40,  52,  73,  75,  76,  77,  78,  79
  80,  81,  90, 102
*Surface, type=ELEMENT, name=Polymer-rivet-0
_Polymer-rivet-0_S4, S4
_Polymer-rivet-0_S6, S6
_Polymer-rivet-0_S3, S3
*Elset, elset=_Polymer-rivet-top-0_S1, internal, generate
  59,  108,    1
*Surface, type=ELEMENT, name=Polymer-rivet-top-0
_Polymer-rivet-top-0_S1, S1
*Elset, elset=_Polymer-rivet-bot-0_S2, internal, generate
  9,  58,   1
*Surface, type=ELEMENT, name=Polymer-rivet-bot-0
_Polymer-rivet-bot-0_S2, S2
*Elset, elset=_Polymer-rivet-1_S4, internal
 1181, 1182, 1200, 1205, 1211, 1212, 1230, 1235
*Elset, elset=_Polymer-rivet-1_S5, internal
 1183, 1196, 1197, 1198, 1213, 1226, 1227, 1228
*Elset, elset=_Polymer-rivet-1_S3, internal
 1184, 1189, 1202, 1214, 1219, 1232
*Elset, elset=_Polymer-rivet-1_S6, internal
 1192, 1194, 1195, 1222, 1224, 1225
*Surface, type=ELEMENT, name=Polymer-rivet-1
_Polymer-rivet-1_S4, S4
_Polymer-rivet-1_S5, S5
_Polymer-rivet-1_S6, S6
_Polymer-rivet-1_S3, S3
*Elset, elset=_Polymer-rivet-top-1_S1, internal, generate
 1211,  1240,     1
*Surface, type=ELEMENT, name=Polymer-rivet-top-1
_Polymer-rivet-top-1_S1, S1
*Elset, elset=_Polymer-rivet-bot-1_S2, internal, generate
 1181,  1210,     1
*Surface, type=ELEMENT, name=Polymer-rivet-bot-1
_Polymer-rivet-bot-1_S2, S2
*Elset, elset=_Polymer-rivet-2_S4, internal
 1, 4, 5, 8
*Elset, elset=_Polymer-rivet-2_S5, internal
 1, 4, 5, 8
*Elset, elset=_Polymer-rivet-2_S3, internal
 2, 3, 6, 7
*Elset, elset=_Polymer-rivet-2_S6, internal
 2, 3, 6, 7
*Surface, type=ELEMENT, name=Polymer-rivet-2
_Polymer-rivet-2_S4, S4
_Polymer-rivet-2_S5, S5
_Polymer-rivet-2_S6, S6
_Polymer-rivet-2_S3, S3
*Elset, elset=_Polymer-rivet-top-2_S1, internal, generate
 5,  8,  1
*Surface, type=ELEMENT, name=Polymer-rivet-top-2
_Polymer-rivet-top-2_S1, S1
*Elset, elset=_Polymer-rivet-bot-2_S2, internal, generate
 1,  4,  1
*Surface, type=ELEMENT, name=Polymer-rivet-bot-2
_Polymer-rivet-bot-2_S2, S2
*Elset, elset=_Polymer-rivet-3_S5, internal
 1241, 1243, 1254, 1255, 1256, 1271, 1273, 1284, 1285, 1286
*Elset, elset=_Polymer-rivet-3_S4, internal
 1242, 1259, 1265, 1267, 1272, 1289, 1295, 1297
*Elset, elset=_Polymer-rivet-3_S3, internal
 1247, 1261, 1277, 1291
*Elset, elset=_Polymer-rivet-3_S6, internal
 1250, 1252, 1253, 1280, 1282, 1283
*Surface, type=ELEMENT, name=Polymer-rivet-3
_Polymer-rivet-3_S5, S5
_Polymer-rivet-3_S4, S4
_Polymer-rivet-3_S6, S6
_Polymer-rivet-3_S3, S3
*Elset, elset=_Polymer-rivet-top-3_S1, internal, generate
 1271,  1300,     1
*Surface, type=ELEMENT, name=Polymer-rivet-top-3
_Polymer-rivet-top-3_S1, S1
*Elset, elset=_Polymer-rivet-bot-3_S2, internal, generate
 1241,  1270,     1
*Surface, type=ELEMENT, name=Polymer-rivet-bot-3
_Polymer-rivet-bot-3_S2, S2
** Section: PolySec
*Solid Section, elset=_PickedSet22, material=Polymer
,
** Section: PolySec
*Solid Section, elset=_PickedSet12, material=Polymer
,
** Section: PolySec
*Solid Section, elset=PolySet, material=Polymer
,
** Section: PolySec
*Solid Section, elset=_PickedSet17, material=Polymer
,
** Section: PolySec
*Solid Section, elset=_PickedSet27, material=Polymer
,
*End Part
**  
**
** ASSEMBLY
**
*Assembly, name=Assembly
**  
*Instance, name=Polymer-1, part=Polymer
*End Instance
**  
*Instance, name=Battery-1, part=Battery
         10.,          10.,           0.
*End Instance
**  
*Instance, name=CF-1, part=CF
          0.,           0.,         -0.4
*End Instance
**  
*Instance, name=CF-2, part=CF
          0.,           0.,          5.4
*End Instance
**  
*Node
      1,          55.,          55.,    5.4000001
*Nset, nset=VerticalSupport, instance=CF-1
   3,   4,   7,   8,  62,  63,  64,  65,  66,  67,  68,  69,  70,  71,  72,  73
  74,  75,  76,  77,  78,  79,  80,  81,  82,  83,  84,  85,  86,  87,  88,  89
  90,  91,  92,  93,  94,  95,  96,  97, 170, 171, 172, 173, 174, 175, 176, 177
 178, 179, 180, 181, 182, 183, 184, 185, 186, 187, 188, 189, 190, 191, 192, 193
 194, 195, 196, 197, 198, 199, 200, 201, 202, 203, 204, 205
*Elset, elset=VerticalSupport, instance=CF-1
  630,  631,  632,  633,  634,  635,  636,  637,  638,  639,  640,  641,  642,  643,  644,  645
  646,  647,  648,  649,  650,  651,  652,  653,  654,  655,  656,  657,  658,  659,  660,  661
  662,  663,  664,  665,  666, 1370, 1371, 1372, 1373, 1374, 1375, 1376, 1377, 1378, 1379, 1380
 1381, 1382, 1383, 1384, 1385, 1386, 1387, 1388, 1389, 1390, 1391, 1392, 1393, 1394, 1395, 1396
 1397, 1398, 1399, 1400, 1401, 1402, 1403, 1404, 1405, 1406
*Nset, nset=XDirSupport, instance=CF-1
 3,
*Nset, nset=YDirSupport, instance=CF-1
 7,
*Nset, nset=rigid_loading_set, instance=CF-2
   1,   2,   5,   6,   9,  10,  11,  12,  13,  14,  15,  16,  17,  18,  19,  20
  21,  22,  23,  24,  25,  26,  27,  28,  29,  30,  31,  32,  33,  34,  35,  36
  37,  38,  39,  40,  41,  42,  43,  44, 115, 116, 117, 118, 119, 120, 121, 122
 123, 124, 125, 126, 127, 128, 129, 130, 131, 132, 133, 134, 135, 136, 137, 138
 139, 140, 141, 142, 143, 144, 145, 146, 147, 148, 149, 150, 151, 152, 835, 836
 837, 838, 839, 840, 841, 842, 843, 844, 845, 846, 847, 848, 849, 850, 851, 852
 853, 854, 855, 856, 857, 858, 859, 860, 861, 862, 863, 864, 865, 866, 867, 868
 869, 870
*Elset, elset=rigid_loading_set, instance=CF-2, generate
 667,  740,    1
*Nset, nset=_PickedSet14, internal
 1,
*Elset, elset=__PickedSurf15_SPOS, internal, instance=CF-2, generate
 667,  740,    1
*Surface, type=ELEMENT, name=_PickedSurf15, internal
__PickedSurf15_SPOS, SPOS
** Constraint: BatPoly-0
*Tie, name=BatPoly-0, adjust=no, position tolerance=1.
Battery-1.Battery-rivet-0, Polymer-1.Polymer-rivet-0
** Constraint: BatPoly-1
*Tie, name=BatPoly-1, adjust=no, position tolerance=1.
Battery-1.Battery-rivet-1, Polymer-1.Polymer-rivet-1
** Constraint: BatPoly-2
*Tie, name=BatPoly-2, adjust=no, position tolerance=1.
Battery-1.Battery-rivet-2, Polymer-1.Polymer-rivet-2
** Constraint: BatPoly-3
*Tie, name=BatPoly-3, adjust=no, position tolerance=1.
Battery-1.Battery-rivet-3, Polymer-1.Polymer-rivet-3
** Constraint: CF1Poly
*Tie, name=CF1Poly, adjust=no, position tolerance=1.
Polymer-1.PolyBot, CF-1.CFtop
** Constraint: CF1Poly-Rivet-0
*Tie, name=CF1Poly-Rivet-0, adjust=no, position tolerance=1.
Polymer-1.Polymer-rivet-bot-0, CF-1.CFtop
** Constraint: CF1Poly-Rivet-1
*Tie, name=CF1Poly-Rivet-1, adjust=no, position tolerance=1.
Polymer-1.Polymer-rivet-bot-1, CF-1.CFtop
** Constraint: CF1Poly-Rivet-2
*Tie, name=CF1Poly-Rivet-2, adjust=no, position tolerance=1.
Polymer-1.Polymer-rivet-bot-2, CF-1.CFtop
** Constraint: CF1Poly-Rivet-3
*Tie, name=CF1Poly-Rivet-3, adjust=no, position tolerance=1.
Polymer-1.Polymer-rivet-bot-3, CF-1.CFtop
** Constraint: CF2Poly
*Tie, name=CF2Poly, adjust=no, position tolerance=1.
Polymer-1.PolyTop, CF-2.CFbot
** Constraint: CF2Poly-Rivet-0
*Tie, name=CF2Poly-Rivet-0, adjust=no, position tolerance=1.
Polymer-1.Polymer-rivet-top-0, CF-2.CFbot
** Constraint: CF2Poly-Rivet-1
*Tie, name=CF2Poly-Rivet-1, adjust=no, position tolerance=1.
Polymer-1.Polymer-rivet-top-1, CF-2.CFbot
** Constraint: CF2Poly-Rivet-2
*Tie, name=CF2Poly-Rivet-2, adjust=no, position tolerance=1.
Polymer-1.Polymer-rivet-top-2, CF-2.CFbot
** Constraint: CF2Poly-Rivet-3
*Tie, name=CF2Poly-Rivet-3, adjust=no, position tolerance=1.
Polymer-1.Polymer-rivet-top-3, CF-2.CFbot
** Constraint: LoadingRigidBody
*Rigid Body, ref node=_PickedSet14, tie nset=rigid_loading_set
*End Assembly
** 
** MATERIALS
** 
*Material, name=BatOrtho
*Elastic, type=ENGINEERING CONSTANTS
1090., 109., 500., 0.15, 0.15, 0.15, 474., 474.
 474.,
*Material, name=CF_material
*Elastic, type=ENGINEERING CONSTANTS
30420.,  4023.,  4023.,   0.29,   0.29, 0.3928,  2081.,  2081.
  1440.,
*Material, name=Polymer
*Elastic
500., 0.3
** 
** INTERACTION PROPERTIES
** 
*Surface Interaction, name=NormCont
1.,
*Friction, slip tolerance=0.005
 0.3,
*Surface Behavior, pressure-overclosure=HARD
** 
** INTERACTIONS
** 
** Interaction: CF1Bat
*Contact Pair, interaction=NormCont, type=SURFACE TO SURFACE
Battery-1.BatBot, CF-1.CFtop
** Interaction: CF2Bat
*Contact Pair, interaction=NormCont, type=SURFACE TO SURFACE
Battery-1.BatTop, CF-2.CFbot
** ----------------------------------------------------------------
** 
** STEP: Loading
** 
*Step, name=Loading, nlgeom=NO
*Static
1., 1., 1e-05, 1.
** 
** BOUNDARY CONDITIONS
** 
** Name: VerticalSupport Type: Displacement/Rotation
*Boundary
VerticalSupport, 3, 3
** Name: XDirSupport Type: Displacement/Rotation
*Boundary
XDirSupport, 1, 1
** Name: YDirSupport Type: Displacement/Rotation
*Boundary
YDirSupport, 2, 2
** 
** LOADS
** 
** Name: Load-1   Type: Pressure
*Dsload
_PickedSurf15, P, 0.181818
** 
** OUTPUT REQUESTS
** 
*Restart, write, frequency=0
** 
** FIELD OUTPUT: F-Output-1
** 
*Output, field
*Node Output
U, UR, UT
*Element Output, directions=YES
EVOL, 
** 
** HISTORY OUTPUT: H-Output-1
** 
*Output, history, variable=PRESELECT
*End Step
