 Abaqus/Standard 3DEXPERIENCE R2019x                  DATE 29-May-2019 TIME 16:53:33
 SUMMARY OF JOB INFORMATION:
 STEP  INC ATT SEVERE EQUIL TOTAL  TOTAL      STEP       INC OF       DOF    IF
               DISCON ITERS ITERS  TIME/    TIME/LPF    TIME/LPF    MONITOR RIKS
               ITERS               FREQ
   1     1   1U   19    16    35  0.000      0.000      1.000     
   1     1   2U   18    16    34  0.000      0.000      0.2500    
   1     1   3U   12     1    13  0.000      0.000      0.06250   
   1     1   4    17     1    18  0.0156     0.0156     0.01563   
   1     2   1U    3     1     4  0.0156     0.0156     0.01563   
   1     2   2U    3     4     7  0.0156     0.0156     0.003906  
   1     2   3     2     1     3  0.0166     0.0166     0.0009766 
   1     3   1U    3     4     7  0.0166     0.0166     0.001465  
   1     3   2U    2     5     7  0.0166     0.0166     0.0003662 
   1     3   3     2     1     3  0.0167     0.0167     9.155e-05 
   1     4   1U    3     5     8  0.0167     0.0167     0.0001373 
   1     4   2U    3     4     7  0.0167     0.0167     3.433e-05 
   1     4   3     2     1     3  0.0167     0.0167     1.000e-05 
   1     5   1U    2     4     6  0.0167     0.0167     1.500e-05 
   1     5   2U    2     5     7  0.0167     0.0167     1.000e-05 
                          
 THE ANALYSIS HAS NOT BEEN COMPLETED
