 Abaqus/Standard 3DEXPERIENCE R2019x                  DATE 29-May-2019 TIME 17:22:10
 SUMMARY OF JOB INFORMATION:
 STEP  INC ATT SEVERE EQUIL TOTAL  TOTAL      STEP       INC OF       DOF    IF
               DISCON ITERS ITERS  TIME/    TIME/LPF    TIME/LPF    MONITOR RIKS
               ITERS               FREQ
   1     1   1U   18    16    34  0.000      0.000      1.000     
   1     1   2U   18    16    34  0.000      0.000      0.2500    
   1     1   3U   11     1    12  0.000      0.000      0.06250   
   1     1   4U   17     4    21  0.000      0.000      0.01563   
   1     1   5    15     1    16  0.00391    0.00391    0.003906  
   1     2   1     6     2     8  0.00781    0.00781    0.003906  
   1     3   1     3     1     4  0.0137     0.0137     0.005859  
   1     4   1U    2     1     3  0.0137     0.0137     0.008789  
   1     4   2U    1     6     7  0.0137     0.0137     0.002197  
   1     4   3U    0     4     4  0.0137     0.0137     0.0005493 
   1     4   4U    1    10    11  0.0137     0.0137     0.0001373 
   1     4   5     0     1     1  0.0137     0.0137     3.433e-05 
   1     5   1U    1     4     5  0.0137     0.0137     5.150e-05 
   1     5   2     0     1     1  0.0137     0.0137     1.287e-05 
   1     6   1U    1     7     8  0.0137     0.0137     1.931e-05 
   1     6   2U    0     4     4  0.0137     0.0137     1.000e-05 
                          
 THE ANALYSIS HAS NOT BEEN COMPLETED
