 Abaqus/Standard 3DEXPERIENCE R2019x                  DATE 29-May-2019 TIME 17:41:45
 SUMMARY OF JOB INFORMATION:
 STEP  INC ATT SEVERE EQUIL TOTAL  TOTAL      STEP       INC OF       DOF    IF
               DISCON ITERS ITERS  TIME/    TIME/LPF    TIME/LPF    MONITOR RIKS
               ITERS               FREQ
   1     1   1U   30     0    30  0.000      0.000      1.000     
   1     1   2U   19    16    35  0.000      0.000      0.2500    
   1     1   3U   17     1    18  0.000      0.000      0.06250   
   1     1   4U   18     7    25  0.000      0.000      0.01563   
   1     1   5    16     1    17  0.00391    0.00391    0.003906  
   1     2   1     5     1     6  0.00781    0.00781    0.003906  
   1     3   1U    3     5     8  0.00781    0.00781    0.005859  
   1     3   2     2     1     3  0.00928    0.00928    0.001465  
   1     4   1     1     4     5  0.0115     0.0115     0.002197  
   1     5   1U    1     6     7  0.0115     0.0115     0.003296  
   1     5   2     1     3     4  0.0123     0.0123     0.0008240 
   1     6   1U    2     4     6  0.0123     0.0123     0.001236  
   1     6   2U    1     4     5  0.0123     0.0123     0.0003090 
   1     6   3U    0     4     4  0.0123     0.0123     7.725e-05 
   1     6   4U    0     5     5  0.0123     0.0123     1.931e-05 
   1     6   5U    1     7     8  0.0123     0.0123     1.000e-05 
                          
 THE ANALYSIS HAS NOT BEEN COMPLETED
