*Heading
** Job name: Job-49 Model name: Model-1
** Generated by: Abaqus/CAE 2019
*Preprint, echo=NO, model=NO, history=NO, contact=NO
**
** PARTS
**
*Part, name=Battery
*Node
      1,   62.5133095,   20.2684917,           0.
      2,   60.3919907,    21.147171,           0.
      3,    58.270668,   20.2684917,           0.
      4,   57.3919907,    18.147171,           0.
      5,    58.270668,   16.0258503,           0.
      6,   60.3919907,    15.147172,           0.
      7,   62.5133095,   16.0258503,           0.
      8,   63.3919907,    18.147171,           0.
      9,   62.4676514,   70.7646179,           0.
     10,   60.6536026,   73.0393677,           0.
     11,   58.0322266,   74.3017578,           0.
     12,    52.501339,   73.0393677,           0.
     13,   50.6872902,   70.7646179,           0.
     14,   50.0398636,   67.9280624,           0.
     15,   50.6872902,   65.0914993,           0.
     16,    52.501339,   62.8167534,           0.
     17,    55.122715,   61.5543633,           0.
     18,   60.6536026,   62.8167534,           0.
     19,   62.4676514,   65.0914993,           0.
     20,    63.115078,   67.9280624,           0.
** ... 3976 like lines cut
*Element, type=C3D8R
   1,  378,  294,  423,  428, 1710, 1626, 1755, 1760
   2,  374,  327,  449,  451, 1706, 1659, 1781, 1783
   3,   41,   11,  653,  183, 1373, 1343, 1985, 1515
   4,  194,  247,  370,  371, 1526, 1579, 1702, 1703
   5,  195,  234,   96,   95, 1527, 1566, 1428, 1427
   6,  462,  363,  322,  469, 1794, 1695, 1654, 1801
   7,  289,  166,   31,   30, 1621, 1498, 1363, 1362
   8,  166,  289, 1101,  408, 1498, 1621, 2433, 1740
   9,  289,   30,   29,  167, 1621, 1362, 1361, 1499
  10,  899,   42,   17,  182, 2231, 1374, 1349, 1514
  11,   36,   35,  277,  163, 1368, 1367, 1609, 1495
  12,  345,  196,  210,  343, 1677, 1528, 1542, 1675
  13,   52,   51,  292,  297, 1384, 1383, 1624, 1629
  14,  276,    8,    7,  162, 1608, 1340, 1339, 1494
  15,  149,  267,  201,  150, 1481, 1599, 1533, 1482
  16,  255,  126,  125,  193, 1587, 1458, 1457, 1525
  17,  294,  255,  329,  423, 1626, 1587, 1661, 1755
  18,  204,  207,  339,  340, 1536, 1539, 1671, 1672
  19,  281,    4,    3,  290, 1613, 1336, 1335, 1622
  20, 1215,  159,   29,   36, 2547, 1491, 1361, 1368
** ... 2492 like lines cut
*Nset, nset=Batset, generate
    1,  3996,     1
*Elset, elset=Batset, generate
    1,  2512,     1
*Elset, elset=_BatTop_S2, internal, generate
 1257,  2512,     1
*Surface, type=ELEMENT, name=BatTop
_BatTop_S2, S2
*Elset, elset=_BatBot_S1, internal, generate
    1,  1256,     1
*Surface, type=ELEMENT, name=BatBot
_BatBot_S1, S1
*Elset, elset=_Battery-rivet-0_S5, internal
    7,   20,  161, 1263, 1276, 1417
*Elset, elset=_Battery-rivet-0_S4, internal
    9,  158,  159,  160, 1265, 1414, 1415, 1416
*Elset, elset=_Battery-rivet-0_S3, internal
   11, 1267
*Surface, type=ELEMENT, name=Battery-rivet-0
_Battery-rivet-0_S5, S5
_Battery-rivet-0_S4, S4
_Battery-rivet-0_S3, S3
*Elset, elset=_Battery-rivet-1_S5, internal
   31,   33, 1287, 1289
*Elset, elset=_Battery-rivet-1_S6, internal
   48,   51, 1304, 1307
*Elset, elset=_Battery-rivet-1_S4, internal
   50,  145, 1306, 1401
*Elset, elset=_Battery-rivet-1_S3, internal
  146,  164, 1402, 1420
*Surface, type=ELEMENT, name=Battery-rivet-1
_Battery-rivet-1_S5, S5
_Battery-rivet-1_S6, S6
_Battery-rivet-1_S4, S4
_Battery-rivet-1_S3, S3
*Elset, elset=_Battery-rivet-2_S3, internal
    3,  101,  112,  122,  126,  157, 1259, 1357, 1368, 1378, 1382, 1413
*Elset, elset=_Battery-rivet-2_S4, internal
   10,   36,  168,  171,  174,  176,  177, 1266, 1292, 1424, 1427, 1430, 1432, 1433
*Elset, elset=_Battery-rivet-2_S5, internal
  144, 1400
*Surface, type=ELEMENT, name=Battery-rivet-2
_Battery-rivet-2_S3, S3
_Battery-rivet-2_S4, S4
_Battery-rivet-2_S5, S5
*Elset, elset=_Battery-rivet-3_S4, internal
   14,   19,   61,  165, 1270, 1275, 1317, 1421
*Elset, elset=_Battery-rivet-3_S3, internal
   53,  132,  154, 1309, 1388, 1410
*Elset, elset=_Battery-rivet-3_S5, internal
  150, 1406
*Surface, type=ELEMENT, name=Battery-rivet-3
_Battery-rivet-3_S4, S4
_Battery-rivet-3_S3, S3
_Battery-rivet-3_S5, S5
*Orientation, name=Ori-1
1., 0., 0., 0., 1., 0.
3, 0.
** Section: BatOrtho
*Solid Section, elset=Batset, orientation=Ori-1, material=BatOrtho
,
*End Part
**  
*Part, name=CF
*Node
      1,         52.5,           0.,           0.
      2,         52.5,         110.,           0.
      3,           0.,         110.,           0.
      4,           0.,           0.,           0.
      5,         57.5,           0.,           0.
      6,         57.5,         110.,           0.
      7,         110.,           0.,           0.
      8,         110.,         110.,           0.
      9,         52.5,   2.97297287,           0.
     10,         52.5,   5.94594574,           0.
     11,         52.5,   8.91891861,           0.
     12,         52.5,   11.8918915,           0.
     13,         52.5,   14.8648653,           0.
     14,         52.5,   17.8378372,           0.
     15,         52.5,   20.8108101,           0.
     16,         52.5,    23.783783,           0.
     17,         52.5,   26.7567558,           0.
     18,         52.5,   29.7297306,           0.
     19,         52.5,   32.7027016,           0.
     20,         52.5,   35.6756744,           0.
** ... 1462 like lines cut
*Element, type=S4R
  1,   1,   9, 223, 114
  2,   9,  10, 224, 223
  3,  10,  11, 225, 224
  4,  11,  12, 226, 225
  5,  12,  13, 227, 226
  6,  13,  14, 228, 227
  7,  14,  15, 229, 228
  8,  15,  16, 230, 229
  9,  16,  17, 231, 230
 10,  17,  18, 232, 231
 11,  18,  19, 233, 232
 12,  19,  20, 234, 233
 13,  20,  21, 235, 234
 14,  21,  22, 236, 235
 15,  22,  23, 237, 236
 16,  23,  24, 238, 237
 17,  24,  25, 239, 238
 18,  25,  26, 240, 239
 19,  26,  27, 241, 240
 20,  27,  28, 242, 241
** ... 1386 like lines cut
*Nset, nset=CF_set, generate
    1,  1482,     1
*Elset, elset=CF_set, generate
    1,  1406,     1
*Elset, elset=_CFtop_SPOS, internal, generate
    1,  1406,     1
*Surface, type=ELEMENT, name=CFtop
_CFtop_SPOS, SPOS
*Elset, elset=_CFbot_SNEG, internal, generate
    1,  1406,     1
*Surface, type=ELEMENT, name=CFbot
_CFbot_SNEG, SNEG
** Section: CF_sec
*Shell Section, elset=CF_set, composite
0.2, 3, CF_material, 0.
0.2, 3, CF_material, 90.
0.2, 3, CF_material, 90.
0.2, 3, CF_material, 0.
*End Part
**  
*Part, name=Polymer
*Node
      1,   73.1150742,   77.9280624,           0.
      2,   73.1150742,   77.9280624,           5.
      3,   58.0328674,    67.086235,           0.
      4,   58.0328674,    67.086235,           5.
      5,          10.,         100.,           0.
      6,          10.,          10.,           0.
      7,         100.,          10.,           0.
      8,         100.,         100.,           0.
      9,         110.,           0.,           0.
     10,           0.,           0.,           0.
     11,           0.,         110.,           0.
     12,         110.,         110.,           0.
     13,          10.,          10.,           5.
     14,          10.,         100.,           5.
     15,         100.,         100.,           5.
     16,         100.,          10.,           5.
     17,           0.,         110.,           5.
     18,           0.,           0.,           5.
     19,         110.,           0.,           5.
     20,         110.,         110.,           5.
** ... 2173 like lines cut
*Element, type=C3D8R
 1, 1785,  673,  672, 1786,  637,   36,   35,  638
 2, 1786, 1784, 1788, 1785,  638,  636,  640,  637
 3,  669, 1782, 1783,  670,   32,  634,  635,   33
 4, 1769,  674,  673, 1785,  621,   37,   36,  637
 5, 1771, 1770, 1782, 1781,  623,  622,  634,  633
 6, 1771, 1779, 1778, 1775,  623,  631,  630,  627
 7, 1787, 1775, 1778, 1772,  639,  627,  630,  624
 8,  661, 1777, 1773,  662,    1,  629,  625,   25
 9, 1777, 1775, 1787, 1773,  629,  627,  639,  625
10, 1784, 1783, 1774, 1788,  636,  635,  626,  640
11, 1775, 1776, 1770, 1771,  627,  628,  622,  623
12,  674, 1769, 1777,  661,   37,  621,  629,    1
13,  668, 1781, 1782,  669,   31,  633,  634,   32
14, 1780, 1781,  668,  667,  632,  633,   31,   30
15, 1780, 1779, 1771, 1781,  632,  631,  623,  633
16, 1787, 1772,  664,  663,  639,  624,   27,   26
17, 1773, 1787,  663,  662,  625,  639,   26,   25
18, 1769, 1776, 1775, 1777,  621,  628,  627,  629
19,  665,  664, 1772, 1778,   28,   27,  624,  630
20, 1788, 1776, 1769, 1785,  640,  628,  621,  637
** ... 1128 like lines cut
*Nset, nset=PolySet
    5,    6,    7,    8,    9,   10,   11,   12,   13,   14,   15,   16,   17,   18,   19,   20
   65,   66,   67,   68,   69,   70,   71,   72,   73,   74,   75,   76,   77,   78,   79,   80
   81,   82,   83,   84,   85,   86,   87,   88,   89,   90,   91,   92,   93,   94,   95,   96
   97,   98,   99,  100,  101,  102,  103,  104,  105,  106,  107,  108,  109,  110,  111,  112
  113,  114,  115,  116,  117,  118,  119,  120,  121,  122,  123,  124,  125,  126,  127,  128
  129,  130,  131,  132,  133,  134,  135,  136,  137,  138,  139,  140,  141,  142,  143,  144
  145,  146,  147,  148,  149,  150,  151,  152,  153,  154,  155,  156,  157,  158,  159,  160
  161,  162,  163,  164,  165,  166,  167,  168,  169,  170,  171,  172,  173,  174,  175,  176
  177,  178,  179,  180,  181,  182,  183,  184,  185,  186,  187,  188,  189,  190,  191,  192
  193,  194,  195,  196,  197,  198,  199,  200,  201,  202,  203,  204,  205,  206,  207,  208
  209,  210,  211,  212,  213,  214,  215,  216,  217,  218,  219,  220,  221,  222,  223,  224
  225,  226,  227,  228,  229,  230,  231,  232,  233,  234,  235,  236,  237,  238,  239,  240
  241,  242,  243,  244,  245,  246,  247,  248,  249,  250,  251,  252,  253,  254,  255,  256
  257,  258,  259,  260,  261,  262,  263,  264,  265,  266,  267,  268,  269,  270,  271,  272
  273,  274,  275,  276,  277,  278,  279,  280,  281,  282,  283,  284,  285,  286,  287,  288
  289,  290,  291,  292,  293,  294,  295,  296,  297,  298,  299,  300,  301,  302,  303,  304
  305,  306,  307,  308,  309,  310,  311,  312,  313,  314,  315,  316,  317,  318,  319,  320
  321,  322,  323,  324,  325,  326,  327,  328,  329,  330,  331,  332,  333,  334,  335,  336
  337,  338,  339,  340,  341,  342,  343,  344,  345,  346,  347,  348,  349,  350,  351,  352
  353,  354,  355,  356,  357,  358,  359,  360,  361,  362,  363,  364,  365,  366,  367,  368
** ... 106 like lines cut
*Elset, elset=PolySet, generate
   61,  1132,     1
*Nset, nset=_PickedSet12, internal
    3,    4,   51,   52,   53,   54,   55,   56,   57,   58,   59,   60,   61,   62,   63,   64
  675,  676,  677,  678,  679,  680,  681,  682,  683,  684, 1789
*Elset, elset=_PickedSet12, internal, generate
 53,  60,   1
*Nset, nset=_PickedSet17, internal
   21,   22,  593,  594,  595,  596,  597,  598,  599,  600,  601,  602,  603,  604,  605,  606
 1749, 1750, 1751, 1752, 1753, 1754, 1755, 1756, 1757, 1758, 2192
*Elset, elset=_PickedSet17, internal, generate
 1133,  1140,     1
*Nset, nset=_PickedSet22, internal
    1,    2,   25,   26,   27,   28,   29,   30,   31,   32,   33,   34,   35,   36,   37,   38
   39,   40,   41,   42,   43,   44,   45,   46,   47,   48,   49,   50,  621,  622,  623,  624
  625,  626,  627,  628,  629,  630,  631,  632,  633,  634,  635,  636,  637,  638,  639,  640
  641,  642,  643,  644,  645,  646,  647,  648,  649,  650,  651,  652,  653,  654,  655,  656
  657,  658,  659,  660,  661,  662,  663,  664,  665,  666,  667,  668,  669,  670,  671,  672
  673,  674, 1769, 1770, 1771, 1772, 1773, 1774, 1775, 1776, 1777, 1778, 1779, 1780, 1781, 1782
 1783, 1784, 1785, 1786, 1787, 1788
*Elset, elset=_PickedSet22, internal, generate
  1,  52,   1
*Nset, nset=_PickedSet27, internal
   23,   24,  607,  608,  609,  610,  611,  612,  613,  614,  615,  616,  617,  618,  619,  620
 1759, 1760, 1761, 1762, 1763, 1764, 1765, 1766, 1767, 1768, 2193
*Elset, elset=_PickedSet27, internal, generate
 1141,  1148,     1
*Elset, elset=_PolyTop_S2, internal, generate
  597,  1132,     1
*Surface, type=ELEMENT, name=PolyTop
_PolyTop_S2, S2
*Elset, elset=_PolyBot_S1, internal, generate
  61,  596,    1
*Surface, type=ELEMENT, name=PolyBot
_PolyBot_S1, S1
*Elset, elset=_Polymer-rivet-0_S4, internal
 53, 56, 57, 60
*Elset, elset=_Polymer-rivet-0_S5, internal
 53, 56, 57, 60
*Elset, elset=_Polymer-rivet-0_S3, internal
 54, 55, 58, 59
*Elset, elset=_Polymer-rivet-0_S6, internal
 54, 55, 58, 59
*Surface, type=ELEMENT, name=Polymer-rivet-0
_Polymer-rivet-0_S4, S4
_Polymer-rivet-0_S5, S5
_Polymer-rivet-0_S6, S6
_Polymer-rivet-0_S3, S3
*Elset, elset=_Polymer-rivet-top-0_S1, internal, generate
 57,  60,   1
*Surface, type=ELEMENT, name=Polymer-rivet-top-0
_Polymer-rivet-top-0_S1, S1
*Elset, elset=_Polymer-rivet-bot-0_S2, internal, generate
 53,  56,   1
*Surface, type=ELEMENT, name=Polymer-rivet-bot-0
_Polymer-rivet-bot-0_S2, S2
*Elset, elset=_Polymer-rivet-1_S4, internal
 1133, 1136, 1137, 1140
*Elset, elset=_Polymer-rivet-1_S5, internal
 1133, 1136, 1137, 1140
*Elset, elset=_Polymer-rivet-1_S3, internal
 1134, 1135, 1138, 1139
*Elset, elset=_Polymer-rivet-1_S6, internal
 1134, 1135, 1138, 1139
*Surface, type=ELEMENT, name=Polymer-rivet-1
_Polymer-rivet-1_S4, S4
_Polymer-rivet-1_S5, S5
_Polymer-rivet-1_S6, S6
_Polymer-rivet-1_S3, S3
*Elset, elset=_Polymer-rivet-top-1_S1, internal, generate
 1137,  1140,     1
*Surface, type=ELEMENT, name=Polymer-rivet-top-1
_Polymer-rivet-top-1_S1, S1
*Elset, elset=_Polymer-rivet-bot-1_S2, internal, generate
 1133,  1136,     1
*Surface, type=ELEMENT, name=Polymer-rivet-bot-1
_Polymer-rivet-bot-1_S2, S2
*Elset, elset=_Polymer-rivet-2_S4, internal
  1,  4, 25, 27, 30, 51
*Elset, elset=_Polymer-rivet-2_S6, internal
  3,  8, 12, 13, 21, 29, 34, 38, 39, 47
*Elset, elset=_Polymer-rivet-2_S5, internal
 14, 16, 17, 40, 42, 43
*Elset, elset=_Polymer-rivet-2_S3, internal
 19, 22, 23, 45, 48, 49
*Surface, type=ELEMENT, name=Polymer-rivet-2
_Polymer-rivet-2_S4, S4
_Polymer-rivet-2_S6, S6
_Polymer-rivet-2_S5, S5
_Polymer-rivet-2_S3, S3
*Elset, elset=_Polymer-rivet-top-2_S1, internal, generate
 27,  52,   1
*Surface, type=ELEMENT, name=Polymer-rivet-top-2
_Polymer-rivet-top-2_S1, S1
*Elset, elset=_Polymer-rivet-bot-2_S2, internal, generate
  1,  26,   1
*Surface, type=ELEMENT, name=Polymer-rivet-bot-2
_Polymer-rivet-bot-2_S2, S2
*Elset, elset=_Polymer-rivet-3_S4, internal
 1141, 1144, 1145, 1148
*Elset, elset=_Polymer-rivet-3_S5, internal
 1141, 1144, 1145, 1148
*Elset, elset=_Polymer-rivet-3_S3, internal
 1142, 1143, 1146, 1147
*Elset, elset=_Polymer-rivet-3_S6, internal
 1142, 1143, 1146, 1147
*Surface, type=ELEMENT, name=Polymer-rivet-3
_Polymer-rivet-3_S4, S4
_Polymer-rivet-3_S5, S5
_Polymer-rivet-3_S6, S6
_Polymer-rivet-3_S3, S3
*Elset, elset=_Polymer-rivet-top-3_S1, internal, generate
 1145,  1148,     1
*Surface, type=ELEMENT, name=Polymer-rivet-top-3
_Polymer-rivet-top-3_S1, S1
*Elset, elset=_Polymer-rivet-bot-3_S2, internal, generate
 1141,  1144,     1
*Surface, type=ELEMENT, name=Polymer-rivet-bot-3
_Polymer-rivet-bot-3_S2, S2
** Section: PolySec
*Solid Section, elset=_PickedSet22, material=Polymer
,
** Section: PolySec
*Solid Section, elset=_PickedSet12, material=Polymer
,
** Section: PolySec
*Solid Section, elset=PolySet, material=Polymer
,
** Section: PolySec
*Solid Section, elset=_PickedSet17, material=Polymer
,
** Section: PolySec
*Solid Section, elset=_PickedSet27, material=Polymer
,
*End Part
**  
**
** ASSEMBLY
**
*Assembly, name=Assembly
**  
*Instance, name=Polymer-1, part=Polymer
*End Instance
**  
*Instance, name=Battery-1, part=Battery
         10.,          10.,           0.
*End Instance
**  
*Instance, name=CF-1, part=CF
          0.,           0.,         -0.4
*End Instance
**  
*Instance, name=CF-2, part=CF
          0.,           0.,          5.4
*End Instance
**  
*Node
      1,          55.,          55.,    5.4000001
*Nset, nset=VerticalSupport, instance=CF-1
   3,   4,   7,   8,  62,  63,  64,  65,  66,  67,  68,  69,  70,  71,  72,  73
  74,  75,  76,  77,  78,  79,  80,  81,  82,  83,  84,  85,  86,  87,  88,  89
  90,  91,  92,  93,  94,  95,  96,  97, 170, 171, 172, 173, 174, 175, 176, 177
 178, 179, 180, 181, 182, 183, 184, 185, 186, 187, 188, 189, 190, 191, 192, 193
 194, 195, 196, 197, 198, 199, 200, 201, 202, 203, 204, 205
*Elset, elset=VerticalSupport, instance=CF-1
  630,  631,  632,  633,  634,  635,  636,  637,  638,  639,  640,  641,  642,  643,  644,  645
  646,  647,  648,  649,  650,  651,  652,  653,  654,  655,  656,  657,  658,  659,  660,  661
  662,  663,  664,  665,  666, 1370, 1371, 1372, 1373, 1374, 1375, 1376, 1377, 1378, 1379, 1380
 1381, 1382, 1383, 1384, 1385, 1386, 1387, 1388, 1389, 1390, 1391, 1392, 1393, 1394, 1395, 1396
 1397, 1398, 1399, 1400, 1401, 1402, 1403, 1404, 1405, 1406
*Nset, nset=XDirSupport, instance=CF-1
 3,
*Nset, nset=YDirSupport, instance=CF-1
 7,
*Nset, nset=rigid_loading_set, instance=CF-2
   1,   2,   5,   6,   9,  10,  11,  12,  13,  14,  15,  16,  17,  18,  19,  20
  21,  22,  23,  24,  25,  26,  27,  28,  29,  30,  31,  32,  33,  34,  35,  36
  37,  38,  39,  40,  41,  42,  43,  44, 115, 116, 117, 118, 119, 120, 121, 122
 123, 124, 125, 126, 127, 128, 129, 130, 131, 132, 133, 134, 135, 136, 137, 138
 139, 140, 141, 142, 143, 144, 145, 146, 147, 148, 149, 150, 151, 152, 835, 836
 837, 838, 839, 840, 841, 842, 843, 844, 845, 846, 847, 848, 849, 850, 851, 852
 853, 854, 855, 856, 857, 858, 859, 860, 861, 862, 863, 864, 865, 866, 867, 868
 869, 870
*Elset, elset=rigid_loading_set, instance=CF-2, generate
 667,  740,    1
*Nset, nset=_PickedSet14, internal
 1,
*Elset, elset=__PickedSurf15_SPOS, internal, instance=CF-2, generate
 667,  740,    1
*Surface, type=ELEMENT, name=_PickedSurf15, internal
__PickedSurf15_SPOS, SPOS
** Constraint: BatPoly-0
*Tie, name=BatPoly-0, adjust=no, position tolerance=1.
Battery-1.Battery-rivet-0, Polymer-1.Polymer-rivet-0
** Constraint: BatPoly-1
*Tie, name=BatPoly-1, adjust=no, position tolerance=1.
Battery-1.Battery-rivet-1, Polymer-1.Polymer-rivet-1
** Constraint: BatPoly-2
*Tie, name=BatPoly-2, adjust=no, position tolerance=1.
Battery-1.Battery-rivet-2, Polymer-1.Polymer-rivet-2
** Constraint: BatPoly-3
*Tie, name=BatPoly-3, adjust=no, position tolerance=1.
Battery-1.Battery-rivet-3, Polymer-1.Polymer-rivet-3
** Constraint: CF1Poly
*Tie, name=CF1Poly, adjust=no, position tolerance=1.
Polymer-1.PolyBot, CF-1.CFtop
** Constraint: CF1Poly-Rivet-0
*Tie, name=CF1Poly-Rivet-0, adjust=no, position tolerance=1.
Polymer-1.Polymer-rivet-bot-0, CF-1.CFtop
** Constraint: CF1Poly-Rivet-1
*Tie, name=CF1Poly-Rivet-1, adjust=no, position tolerance=1.
Polymer-1.Polymer-rivet-bot-1, CF-1.CFtop
** Constraint: CF1Poly-Rivet-2
*Tie, name=CF1Poly-Rivet-2, adjust=no, position tolerance=1.
Polymer-1.Polymer-rivet-bot-2, CF-1.CFtop
** Constraint: CF1Poly-Rivet-3
*Tie, name=CF1Poly-Rivet-3, adjust=no, position tolerance=1.
Polymer-1.Polymer-rivet-bot-3, CF-1.CFtop
** Constraint: CF2Poly
*Tie, name=CF2Poly, adjust=no, position tolerance=1.
Polymer-1.PolyTop, CF-2.CFbot
** Constraint: CF2Poly-Rivet-0
*Tie, name=CF2Poly-Rivet-0, adjust=no, position tolerance=1.
Polymer-1.Polymer-rivet-top-0, CF-2.CFbot
** Constraint: CF2Poly-Rivet-1
*Tie, name=CF2Poly-Rivet-1, adjust=no, position tolerance=1.
Polymer-1.Polymer-rivet-top-1, CF-2.CFbot
** Constraint: CF2Poly-Rivet-2
*Tie, name=CF2Poly-Rivet-2, adjust=no, position tolerance=1.
Polymer-1.Polymer-rivet-top-2, CF-2.CFbot
** Constraint: CF2Poly-Rivet-3
*Tie, name=CF2Poly-Rivet-3, adjust=no, position tolerance=1.
Polymer-1.Polymer-rivet-top-3, CF-2.CFbot
** Constraint: LoadingRigidBody
*Rigid Body, ref node=_PickedSet14, tie nset=rigid_loading_set
*End Assembly
** 
** MATERIALS
** 
*Material, name=BatOrtho
*Elastic, type=ENGINEERING CONSTANTS
1090., 109., 500., 0.15, 0.15, 0.15, 474., 474.
 474.,
*Material, name=CF_material
*Elastic, type=ENGINEERING CONSTANTS
30420.,  4023.,  4023.,   0.29,   0.29, 0.3928,  2081.,  2081.
  1440.,
*Material, name=Polymer
*Elastic
500., 0.3
** 
** INTERACTION PROPERTIES
** 
*Surface Interaction, name=NormCont
1.,
*Friction, slip tolerance=0.005
 0.3,
*Surface Behavior, pressure-overclosure=HARD
** 
** INTERACTIONS
** 
** Interaction: CF1Bat
*Contact Pair, interaction=NormCont, type=SURFACE TO SURFACE
Battery-1.BatBot, CF-1.CFtop
** Interaction: CF2Bat
*Contact Pair, interaction=NormCont, type=SURFACE TO SURFACE
Battery-1.BatTop, CF-2.CFbot
** ----------------------------------------------------------------
** 
** STEP: Loading
** 
*Step, name=Loading, nlgeom=NO
*Static
1., 1., 1e-05, 1.
** 
** BOUNDARY CONDITIONS
** 
** Name: VerticalSupport Type: Displacement/Rotation
*Boundary
VerticalSupport, 3, 3
** Name: XDirSupport Type: Displacement/Rotation
*Boundary
XDirSupport, 1, 1
** Name: YDirSupport Type: Displacement/Rotation
*Boundary
YDirSupport, 2, 2
** 
** LOADS
** 
** Name: Load-1   Type: Pressure
*Dsload
_PickedSurf15, P, 0.181818
** 
** OUTPUT REQUESTS
** 
*Restart, write, frequency=0
** 
** FIELD OUTPUT: F-Output-1
** 
*Output, field
*Node Output
U, UR, UT
*Element Output, directions=YES
EVOL, 
** 
** HISTORY OUTPUT: H-Output-1
** 
*Output, history, variable=PRESELECT
*End Step
