1

   Abaqus 3DEXPERIENCE R2019x                                  Date 27-May-2019   Time 23:04:07
   For demonstration or benchmarking only under agreement with Dassault Systemes or its subsidiary.

                                                                                 
                                                                                 
 STEP    1     INCREMENT     1     STEP TIME    0.00    


                        S T E P       1     S T A T I C   A N A L Y S I S


                                                                                          

     AUTOMATIC TIME CONTROL WITH -
          A SUGGESTED INITIAL TIME INCREMENT OF                 1.00    
          AND A TOTAL TIME PERIOD OF                            1.00    
          THE MINIMUM TIME INCREMENT ALLOWED IS                1.000E-05
          THE MAXIMUM TIME INCREMENT ALLOWED IS                 1.00    

     LINEAR EQUATION SOLVER TYPE         DIRECT SPARSE

 CONVERGENCE TOLERANCE PARAMETERS FOR FORCE    
     CRITERION FOR RESIDUAL FORCE     FOR A NONLINEAR PROBLEM          5.000E-03
     CRITERION FOR DISP.    CORRECTION IN A NONLINEAR PROBLEM          1.000E-02
     INITIAL VALUE OF TIME AVERAGE FORCE                               1.000E-02
     AVERAGE FORCE     IS TIME AVERAGE FORCE    
     ALTERNATE CRIT. FOR RESIDUAL FORCE     FOR A NONLINEAR PROBLEM    2.000E-02
     CRITERION FOR ZERO FORCE     RELATIVE TO TIME AVRG. FORCE         1.000E-05
     CRITERION FOR RESIDUAL FORCE     WHEN THERE IS ZERO FLUX          1.000E-05
     CRITERION FOR DISP.    CORRECTION WHEN THERE IS ZERO FLUX         1.000E-03
     CRITERION FOR RESIDUAL FORCE     FOR A LINEAR INCREMENT           1.000E-08
     FIELD CONVERSION RATIO                                             1.00    
     CRITERION FOR ZERO FORCE     REL. TO TIME AVRG. MAX. FORCE        1.000E-05
     CRITERION FOR ZERO DISP.    RELATIVE TO CHARACTERISTIC LENGTH     1.000E-08

 CONVERGENCE TOLERANCE PARAMETERS FOR MOMENT   
     CRITERION FOR RESIDUAL MOMENT    FOR A NONLINEAR PROBLEM          5.000E-03
     CRITERION FOR ROTATION CORRECTION IN A NONLINEAR PROBLEM          1.000E-02
     INITIAL VALUE OF TIME AVERAGE MOMENT                              1.000E-02
     AVERAGE MOMENT    IS TIME AVERAGE MOMENT   
     ALTERNATE CRIT. FOR RESIDUAL MOMENT    FOR A NONLINEAR PROBLEM    2.000E-02
     CRITERION FOR ZERO MOMENT    RELATIVE TO TIME AVRG. MOMENT        1.000E-05
     CRITERION FOR RESIDUAL MOMENT    WHEN THERE IS ZERO FLUX          1.000E-05
     CRITERION FOR ROTATION CORRECTION WHEN THERE IS ZERO FLUX         1.000E-03
     CRITERION FOR RESIDUAL MOMENT    FOR A LINEAR INCREMENT           1.000E-08
     FIELD CONVERSION RATIO                                             1.00    
     CRITERION FOR ZERO MOMENT    REL. TO TIME AVRG. MAX. MOMENT       1.000E-05

     VOLUMETRIC STRAIN COMPATIBILITY TOLERANCE FOR HYBRID SOLIDS       1.000E-05
     AXIAL STRAIN COMPATIBILITY TOLERANCE FOR HYBRID BEAMS             1.000E-05
     TRANS. SHEAR STRAIN COMPATIBILITY TOLERANCE FOR HYBRID BEAMS      1.000E-05
     SOFT CONTACT CONSTRAINT COMPATIBILITY TOLERANCE FOR P>P0          5.000E-03
     SOFT CONTACT CONSTRAINT COMPATIBILITY TOLERANCE FOR P=0.0         0.100    
     CONTACT FORCE ERROR TOLERANCE FOR CONVERT SDI=YES                 1.00    
     DISPLACEMENT COMPATIBILITY TOLERANCE FOR DCOUP ELEMENTS           1.000E-05
     ROTATION COMPATIBILITY TOLERANCE FOR DCOUP ELEMENTS               1.000E-05

 EQUILIBRIUM WILL BE CHECKED FOR SEVERE DISCONTINUITY ITERATIONS

 TIME INCREMENTATION CONTROL PARAMETERS:
     FIRST EQUILIBRIUM ITERATION FOR CONSECUTIVE DIVERGENCE CHECK              4
     EQUILIBRIUM ITERATION AT WHICH LOG. CONVERGENCE RATE CHECK BEGINS         8
     EQUILIBRIUM ITERATION AFTER WHICH ALTERNATE RESIDUAL IS USED              9
     MAXIMUM EQUILIBRIUM ITERATIONS ALLOWED                                   16
     EQUILIBRIUM ITERATION COUNT FOR CUT-BACK IN NEXT INCREMENT               10
     MAXIMUM EQUILIB. ITERS IN TWO INCREMENTS FOR TIME INCREMENT INCREASE      4
     MAXIMUM ITERATIONS FOR SEVERE DISCONTINUITIES                            50
     MAXIMUM ATTEMPTS ALLOWED IN AN INCREMENT                                  5
     MAXIMUM DISCON. ITERS IN TWO INCREMENTS FOR TIME INCREMENT INCREASE      50
     MAXIMUM CONTACT AUGMENTATIONS FOR *SURFACE BEHAVIOR,AUGMENTED LAGRANGE   50
     CUT-BACK FACTOR AFTER DIVERGENCE                                 0.2500    
     CUT-BACK FACTOR FOR TOO SLOW CONVERGENCE                         0.5000    
     CUT-BACK FACTOR AFTER TOO MANY EQUILIBRIUM ITERATIONS            0.7500    
     CUT-BACK FACTOR AFTER TOO MANY SEVERE DISCONTINUITY ITERATIONS   0.2500    
     CUT-BACK FACTOR AFTER PROBLEMS IN ELEMENT ASSEMBLY               0.2500    
     INCREASE FACTOR AFTER TWO INCREMENTS THAT CONVERGE QUICKLY        1.500    
     MAX. TIME INCREMENT INCREASE FACTOR ALLOWED                       1.500    
     MAX. TIME INCREMENT INCREASE FACTOR ALLOWED (DYNAMICS)            1.250    
     MAX. TIME INCREMENT INCREASE FACTOR ALLOWED (DIFFUSION)           2.000    
     MINIMUM TIME INCREMENT RATIO FOR EXTRAPOLATION TO OCCUR          0.1000    
     MAX. RATIO OF TIME INCREMENT TO STABILITY LIMIT                   1.000    
     FRACTION OF STABILITY LIMIT FOR NEW TIME INCREMENT               0.9500    
     TIME INCREMENT INCREASE FACTOR BEFORE A TIME POINT                1.000    

 CONTACT CONTROLS APPLIED TO ALL CONTACT PAIRS:
     GLOBAL STABILIZATION CONTROL IS NOT USED
     RELATIVE PENETRATION TOLERANCE FOR AUGMENTED LAGRANGE CONTACT:
          FINITE-SLIDING SURFACE-TO-SURFACE                            5.000E-02
          OTHERWISE                                                    1.000E-03

          PRINT OF INCREMENT NUMBER, TIME, ETC., EVERY    1  INCREMENTS

     THE MAXIMUM NUMBER OF INCREMENTS IN THIS STEP IS                     100

          UNSYMMETRIC MATRIX STORAGE AND SOLUTION WILL BE USED

     LINEAR EXTRAPOLATION WILL BE USED

     CHARACTERISTIC ELEMENT LENGTH      2.67    

     DETAILS REGARDING ACTUAL SOLUTION WAVEFRONT REQUESTED

     DETAILED OUTPUT OF DIAGNOSTICS TO DATABASE REQUESTED

     PRINT OF INCREMENT NUMBER, TIME, ETC., TO THE MESSAGE FILE EVERY     1  INCREMENTS

     COLLECTING MODEL CONSTRAINT INFORMATION FOR OVERCONSTRAINT CHECKS

     COLLECTING STEP CONSTRAINT INFORMATION FOR OVERCONSTRAINT CHECKS


  INCREMENT     1 STARTS. ATTEMPT NUMBER  1, TIME INCREMENT   1.00    

  NUMBER OF EQUATIONS =     31356     NUMBER OF RHS =    1
  NUMBER OF FLOATING PT. OPERATIONS =  1.07E+11

     CHECK POINT   START OF SOLVER    

     CHECK POINT  END OF SOLVER       

       ELAPSED USER TIME (SEC)      =   11.300    
       ELAPSED SYSTEM TIME (SEC)    =   0.0000    
       ELAPSED TOTAL CPU TIME (SEC) =   11.300    
       ELAPSED WALLCLOCK TIME (SEC) =         11
 

 ***WARNING: SOLVER PROBLEM. NUMERICAL SINGULARITY WHEN PROCESSING NODE 
             ASSEMBLY.1 D.O.F. 6 RATIO = 1.01986E+15.

                 1312 SEVERE DISCONTINUITIES OCCURRED DURING THIS ITERATION.
                 1296 POINTS CHANGED FROM CLOSED TO OPEN
                   16 POINTS CHANGED FROM STICKING TO SLIPPING

               CONVERGENCE CHECKS FOR SEVERE DISCONTINUITY ITERATION     1

   MAX. PENETRATION ERROR 45.1254E-06  AT NODE BATTERY-1.336 OF CONTACT PAIR 
   (ASSEMBLY_BATTERY-1_BATBOT,ASSEMBLY_CF-1_CFTOP)
   MAX. CONTACT FORCE ERROR -1.42491     AT NODE BATTERY-1.2945 OF CONTACT PAIR 
   (ASSEMBLY_BATTERY-1_BATTOP,ASSEMBLY_CF-2_CFBOT)
          THE ESTIMATED CONTACT FORCE ERROR IS OUTSIDE OF CONVERGENCE TOLERANCES.

 AVERAGE FORCE                      0.173       TIME AVG. FORCE       0.173    
 LARGEST RESIDUAL FORCE             -7.41       AT NODE          1   DOF  3
   INSTANCE:                                                                                 
 LARGEST INCREMENT OF DISP.        -0.140       AT NODE        491   DOF  3
   INSTANCE: POLYMER-1                                                                       
 LARGEST CORRECTION TO DISP.       -0.140       AT NODE        491   DOF  3
   INSTANCE: POLYMER-1                                                                       
          FORCE     EQUILIBRIUM NOT ACHIEVED WITHIN TOLERANCE.

 AVERAGE MOMENT                     5.976E-02   TIME AVG. MOMENT      5.976E-02
 LARGEST RESIDUAL MOMENT             64.7       AT NODE          1   DOF  6
   INSTANCE:                                                                                 
 LARGEST INCREMENT OF ROTATION     -4.778E-03   AT NODE          7   DOF  5
   INSTANCE: CF-1                                                                            
 LARGEST CORRECTION TO ROTATION    -4.778E-03   AT NODE          7   DOF  5
   INSTANCE: CF-1                                                                            
          MOMENT    EQUILIBRIUM NOT ACHIEVED WITHIN TOLERANCE.

  NUMBER OF EQUATIONS =     31356     NUMBER OF RHS =    1
  NUMBER OF FLOATING PT. OPERATIONS =  9.90E+10

     CHECK POINT   START OF SOLVER    

     CHECK POINT  END OF SOLVER       

       ELAPSED USER TIME (SEC)      =   10.400    
       ELAPSED SYSTEM TIME (SEC)    =   0.0000    
       ELAPSED TOTAL CPU TIME (SEC) =   10.400    
       ELAPSED WALLCLOCK TIME (SEC) =         10
 

 ***WARNING: SOLVER PROBLEM. NUMERICAL SINGULARITY WHEN PROCESSING NODE 
             ASSEMBLY.1 D.O.F. 6 RATIO = 69.6106E+09 .

                 1864 SEVERE DISCONTINUITIES OCCURRED DURING THIS ITERATION.
                  609 POINTS CHANGED FROM OPEN TO CLOSED
                  648 POINTS CHANGED FROM CLOSED TO OPEN
                  607 POINTS CHANGED FROM STICKING TO SLIPPING

               CONVERGENCE CHECKS FOR SEVERE DISCONTINUITY ITERATION     2

   MAX. PENETRATION ERROR 2.38815E-03 AT NODE BATTERY-1.2827 OF CONTACT PAIR 
   (ASSEMBLY_BATTERY-1_BATTOP,ASSEMBLY_CF-2_CFBOT)
   MAX. CONTACT FORCE ERROR 2.13654     AT NODE BATTERY-1.376 OF CONTACT PAIR 
   (ASSEMBLY_BATTERY-1_BATBOT,ASSEMBLY_CF-1_CFTOP)
          THE ESTIMATED CONTACT FORCE ERROR IS OUTSIDE OF CONVERGENCE TOLERANCES.

 AVERAGE FORCE                      0.201       TIME AVG. FORCE       0.201    
 LARGEST RESIDUAL FORCE              14.0       AT NODE          1   DOF  3
   INSTANCE:                                                                                 
 LARGEST INCREMENT OF DISP.          7.57       AT NODE          7   DOF  1
   INSTANCE: CF-1                                                                            
 LARGEST CORRECTION TO DISP.         7.62       AT NODE          7   DOF  1
   INSTANCE: CF-1                                                                            
          FORCE     EQUILIBRIUM NOT ACHIEVED WITHIN TOLERANCE.

 AVERAGE MOMENT                     0.138       TIME AVG. MOMENT      0.138    
 LARGEST RESIDUAL MOMENT            -99.4       AT NODE          1   DOF  4
   INSTANCE:                                                                                 
 LARGEST INCREMENT OF ROTATION      6.895E-02   AT NODE         66   DOF  6
   INSTANCE: CF-1                                                                            
 LARGEST CORRECTION TO ROTATION     6.957E-02   AT NODE        579   DOF  6
   INSTANCE: CF-1                                                                            
          MOMENT    EQUILIBRIUM NOT ACHIEVED WITHIN TOLERANCE.

  NUMBER OF EQUATIONS =     31356     NUMBER OF RHS =    1
  NUMBER OF FLOATING PT. OPERATIONS =  9.42E+10

     CHECK POINT   START OF SOLVER    

     CHECK POINT  END OF SOLVER       

       ELAPSED USER TIME (SEC)      =   10.100    
       ELAPSED SYSTEM TIME (SEC)    =  0.10000    
       ELAPSED TOTAL CPU TIME (SEC) =   10.200    
       ELAPSED WALLCLOCK TIME (SEC) =         11
 

 ***WARNING: SOLVER PROBLEM. NUMERICAL SINGULARITY WHEN PROCESSING NODE 
             ASSEMBLY.1 D.O.F. 6 RATIO = 9.15304E+09.

                  895 SEVERE DISCONTINUITIES OCCURRED DURING THIS ITERATION.
                  205 POINTS CHANGED FROM OPEN TO CLOSED
                  510 POINTS CHANGED FROM CLOSED TO OPEN
                    7 POINTS CHANGED FROM SLIPPING TO STICKING
                  173 POINTS CHANGED FROM STICKING TO SLIPPING

               CONVERGENCE CHECKS FOR SEVERE DISCONTINUITY ITERATION     3

   MAX. PENETRATION ERROR 533.372E-06   AT NODE BATTERY-1.4118 OF CONTACT PAIR 
   (ASSEMBLY_BATTERY-1_BATTOP,ASSEMBLY_CF-2_CFBOT)
   MAX. CONTACT FORCE ERROR -1.22924     AT NODE BATTERY-1.3204 OF CONTACT PAIR 
   (ASSEMBLY_BATTERY-1_BATTOP,ASSEMBLY_CF-2_CFBOT)
          THE ESTIMATED CONTACT FORCE ERROR IS OUTSIDE OF CONVERGENCE TOLERANCES.

 AVERAGE FORCE                      0.202       TIME AVG. FORCE       0.202    
 LARGEST RESIDUAL FORCE              2.38       AT NODE          1   DOF  3
   INSTANCE:                                                                                 
 LARGEST INCREMENT OF DISP.         0.969       AT NODE         94   DOF  2
   INSTANCE: CF-1                                                                            
 LARGEST CORRECTION TO DISP.        -8.51       AT NODE          7   DOF  1
   INSTANCE: CF-2                                                                            
          FORCE     EQUILIBRIUM NOT ACHIEVED WITHIN TOLERANCE.

 AVERAGE MOMENT                     0.146       TIME AVG. MOMENT      0.146    
 LARGEST RESIDUAL MOMENT            -24.8       AT NODE          1   DOF  4
   INSTANCE:                                                                                 
 LARGEST INCREMENT OF ROTATION     -9.213E-03   AT NODE         94   DOF  6
   INSTANCE: CF-1                                                                            
 LARGEST CORRECTION TO ROTATION    -7.740E-02   AT NODE       1335   DOF  6
   INSTANCE: CF-2                                                                            
          MOMENT    EQUILIBRIUM NOT ACHIEVED WITHIN TOLERANCE.

  NUMBER OF EQUATIONS =     31356     NUMBER OF RHS =    1
  NUMBER OF FLOATING PT. OPERATIONS =  8.86E+10

     CHECK POINT   START OF SOLVER    

     CHECK POINT  END OF SOLVER       

       ELAPSED USER TIME (SEC)      =   9.4000    
       ELAPSED SYSTEM TIME (SEC)    =   0.0000    
       ELAPSED TOTAL CPU TIME (SEC) =   9.4000    
       ELAPSED WALLCLOCK TIME (SEC) =          9
 

 ***WARNING: SOLVER PROBLEM. NUMERICAL SINGULARITY WHEN PROCESSING NODE 
             ASSEMBLY.1 D.O.F. 6 RATIO = 7.69431E+09.

                  611 SEVERE DISCONTINUITIES OCCURRED DURING THIS ITERATION.
                  141 POINTS CHANGED FROM OPEN TO CLOSED
                  344 POINTS CHANGED FROM CLOSED TO OPEN
                  126 POINTS CHANGED FROM STICKING TO SLIPPING

               CONVERGENCE CHECKS FOR SEVERE DISCONTINUITY ITERATION     4

   MAX. PENETRATION ERROR 350.341E-06   AT NODE BATTERY-1.3538 OF CONTACT PAIR 
   (ASSEMBLY_BATTERY-1_BATTOP,ASSEMBLY_CF-2_CFBOT)
   MAX. CONTACT FORCE ERROR -997.402E-03   AT NODE BATTERY-1.3353 OF CONTACT 
   PAIR (ASSEMBLY_BATTERY-1_BATTOP,ASSEMBLY_CF-2_CFBOT)
          THE ESTIMATED CONTACT FORCE ERROR IS OUTSIDE OF CONVERGENCE TOLERANCES.

 AVERAGE FORCE                      0.201       TIME AVG. FORCE       0.201    
 LARGEST RESIDUAL FORCE             0.621       AT NODE        565   DOF  3
   INSTANCE: CF-2                                                                            
 LARGEST INCREMENT OF DISP.        -0.244       AT NODE       3477   DOF  3
   INSTANCE: BATTERY-1                                                                       
 LARGEST CORRECTION TO DISP.        0.874       AT NODE          7   DOF  1
   INSTANCE: CF-1                                                                            
          FORCE     EQUILIBRIUM NOT ACHIEVED WITHIN TOLERANCE.

 AVERAGE MOMENT                     0.149       TIME AVG. MOMENT      0.149    
 LARGEST RESIDUAL MOMENT           -0.130       AT NODE          1   DOF  4
   INSTANCE:                                                                                 
 LARGEST INCREMENT OF ROTATION      8.924E-03   AT NODE        603   DOF  5
   INSTANCE: CF-2                                                                            
 LARGEST CORRECTION TO ROTATION     7.952E-03   AT NODE         66   DOF  6
   INSTANCE: CF-1                                                                            
          MOMENT    EQUILIBRIUM NOT ACHIEVED WITHIN TOLERANCE.

  NUMBER OF EQUATIONS =     31356     NUMBER OF RHS =    1
  NUMBER OF FLOATING PT. OPERATIONS =  8.24E+10

     CHECK POINT   START OF SOLVER    

     CHECK POINT  END OF SOLVER       

       ELAPSED USER TIME (SEC)      =   8.8000    
       ELAPSED SYSTEM TIME (SEC)    =   0.0000    
       ELAPSED TOTAL CPU TIME (SEC) =   8.8000    
       ELAPSED WALLCLOCK TIME (SEC) =          9
 

 ***WARNING: SOLVER PROBLEM. NUMERICAL SINGULARITY WHEN PROCESSING NODE 
             ASSEMBLY.1 D.O.F. 6 RATIO = 8.39787E+09.

                  461 SEVERE DISCONTINUITIES OCCURRED DURING THIS ITERATION.
                  135 POINTS CHANGED FROM OPEN TO CLOSED
                  203 POINTS CHANGED FROM CLOSED TO OPEN
                  123 POINTS CHANGED FROM STICKING TO SLIPPING

               CONVERGENCE CHECKS FOR SEVERE DISCONTINUITY ITERATION     5

   MAX. PENETRATION ERROR 397.924E-06   AT NODE BATTERY-1.488 OF CONTACT PAIR 
   (ASSEMBLY_BATTERY-1_BATBOT,ASSEMBLY_CF-1_CFTOP)
   MAX. CONTACT FORCE ERROR -799.120E-03   AT NODE BATTERY-1.3455 OF CONTACT 
   PAIR (ASSEMBLY_BATTERY-1_BATTOP,ASSEMBLY_CF-2_CFBOT)
          THE ESTIMATED CONTACT FORCE ERROR IS OUTSIDE OF CONVERGENCE TOLERANCES.

 AVERAGE FORCE                      0.201       TIME AVG. FORCE       0.201    
 LARGEST RESIDUAL FORCE            -0.497       AT NODE       3455   DOF  3
   INSTANCE: BATTERY-1                                                                       
 LARGEST INCREMENT OF DISP.        -0.245       AT NODE       3477   DOF  3
   INSTANCE: BATTERY-1                                                                       
 LARGEST CORRECTION TO DISP.        2.472E-03   AT NODE       1242   DOF  3
   INSTANCE: CF-2                                                                            
          FORCE     EQUILIBRIUM NOT ACHIEVED WITHIN TOLERANCE.

 AVERAGE MOMENT                     0.150       TIME AVG. MOMENT      0.150    
 LARGEST RESIDUAL MOMENT            8.246E-03   AT NODE          1   DOF  4
   INSTANCE:                                                                                 
 LARGEST INCREMENT OF ROTATION      8.947E-03   AT NODE        603   DOF  5
   INSTANCE: CF-2                                                                            
 LARGEST CORRECTION TO ROTATION    -4.996E-04   AT NODE       1206   DOF  5
   INSTANCE: CF-2                                                                            
          MOMENT    EQUILIBRIUM NOT ACHIEVED WITHIN TOLERANCE.

  NUMBER OF EQUATIONS =     31356     NUMBER OF RHS =    1
  NUMBER OF FLOATING PT. OPERATIONS =  8.15E+10

     CHECK POINT   START OF SOLVER    

     CHECK POINT  END OF SOLVER       

       ELAPSED USER TIME (SEC)      =   8.6000    
       ELAPSED SYSTEM TIME (SEC)    =  0.10000    
       ELAPSED TOTAL CPU TIME (SEC) =   8.7000    
       ELAPSED WALLCLOCK TIME (SEC) =          9
 

 ***WARNING: SOLVER PROBLEM. NUMERICAL SINGULARITY WHEN PROCESSING NODE 
             ASSEMBLY.1 D.O.F. 6 RATIO = 9.18993E+09.

                  409 SEVERE DISCONTINUITIES OCCURRED DURING THIS ITERATION.
                  139 POINTS CHANGED FROM OPEN TO CLOSED
                  163 POINTS CHANGED FROM CLOSED TO OPEN
                  107 POINTS CHANGED FROM STICKING TO SLIPPING

               CONVERGENCE CHECKS FOR SEVERE DISCONTINUITY ITERATION     6

   MAX. PENETRATION ERROR 557.038E-06   AT NODE BATTERY-1.3800 OF CONTACT PAIR 
   (ASSEMBLY_BATTERY-1_BATTOP,ASSEMBLY_CF-2_CFBOT)
   MAX. CONTACT FORCE ERROR -1.02066     AT NODE BATTERY-1.3740 OF CONTACT PAIR 
   (ASSEMBLY_BATTERY-1_BATTOP,ASSEMBLY_CF-2_CFBOT)
          THE ESTIMATED CONTACT FORCE ERROR IS OUTSIDE OF CONVERGENCE TOLERANCES.

 AVERAGE FORCE                      0.200       TIME AVG. FORCE       0.200    
 LARGEST RESIDUAL FORCE            -0.620       AT NODE       3740   DOF  3
   INSTANCE: BATTERY-1                                                                       
 LARGEST INCREMENT OF DISP.        -0.245       AT NODE       3477   DOF  3
   INSTANCE: BATTERY-1                                                                       
 LARGEST CORRECTION TO DISP.        8.759E-02   AT NODE          7   DOF  1
   INSTANCE: CF-1                                                                            
          FORCE     EQUILIBRIUM NOT ACHIEVED WITHIN TOLERANCE.

 AVERAGE MOMENT                     0.151       TIME AVG. MOMENT      0.151    
 LARGEST RESIDUAL MOMENT           -9.249E-04   AT NODE       1118   DOF  5
   INSTANCE: CF-2                                                                            
 LARGEST INCREMENT OF ROTATION      9.018E-03   AT NODE        568   DOF  5
   INSTANCE: CF-2                                                                            
 LARGEST CORRECTION TO ROTATION     7.976E-04   AT NODE        176   DOF  6
   INSTANCE: CF-1                                                                            
          MOMENT    EQUILIBRIUM NOT ACHIEVED WITHIN TOLERANCE.

  NUMBER OF EQUATIONS =     31356     NUMBER OF RHS =    1
  NUMBER OF FLOATING PT. OPERATIONS =  7.88E+10

     CHECK POINT   START OF SOLVER    

     CHECK POINT  END OF SOLVER       

       ELAPSED USER TIME (SEC)      =   8.4000    
       ELAPSED SYSTEM TIME (SEC)    =   0.0000    
       ELAPSED TOTAL CPU TIME (SEC) =   8.4000    
       ELAPSED WALLCLOCK TIME (SEC) =          8
 

 ***WARNING: SOLVER PROBLEM. NUMERICAL SINGULARITY WHEN PROCESSING NODE 
             ASSEMBLY.1 D.O.F. 6 RATIO = 9.50262E+09.

                  385 SEVERE DISCONTINUITIES OCCURRED DURING THIS ITERATION.
                  150 POINTS CHANGED FROM OPEN TO CLOSED
                  146 POINTS CHANGED FROM CLOSED TO OPEN
                   89 POINTS CHANGED FROM STICKING TO SLIPPING

               CONVERGENCE CHECKS FOR SEVERE DISCONTINUITY ITERATION     7

   MAX. PENETRATION ERROR 445.459E-06   AT NODE BATTERY-1.3928 OF CONTACT PAIR 
   (ASSEMBLY_BATTERY-1_BATTOP,ASSEMBLY_CF-2_CFBOT)
   MAX. CONTACT FORCE ERROR -778.424E-03   AT NODE BATTERY-1.2781 OF CONTACT 
   PAIR (ASSEMBLY_BATTERY-1_BATTOP,ASSEMBLY_CF-2_CFBOT)
          THE ESTIMATED CONTACT FORCE ERROR IS OUTSIDE OF CONVERGENCE TOLERANCES.

 AVERAGE FORCE                      0.200       TIME AVG. FORCE       0.200    
 LARGEST RESIDUAL FORCE             0.462       AT NODE        493   DOF  3
   INSTANCE: CF-2                                                                            
 LARGEST INCREMENT OF DISP.        -0.246       AT NODE       3477   DOF  3
   INSTANCE: BATTERY-1                                                                       
 LARGEST CORRECTION TO DISP.        8.022E-03   AT NODE         94   DOF  2
   INSTANCE: CF-1                                                                            
          FORCE     EQUILIBRIUM NOT ACHIEVED WITHIN TOLERANCE.

 AVERAGE MOMENT                     0.152       TIME AVG. MOMENT      0.152    
 LARGEST RESIDUAL MOMENT           -1.083E-02   AT NODE       1117   DOF  5
   INSTANCE: CF-2                                                                            
 LARGEST INCREMENT OF ROTATION      9.050E-03   AT NODE        567   DOF  5
   INSTANCE: CF-2                                                                            
 LARGEST CORRECTION TO ROTATION     5.436E-04   AT NODE        486   DOF  5
   INSTANCE: CF-2                                                                            
          MOMENT    EQUILIBRIUM NOT ACHIEVED WITHIN TOLERANCE.

  NUMBER OF EQUATIONS =     31356     NUMBER OF RHS =    1
  NUMBER OF FLOATING PT. OPERATIONS =  7.95E+10

     CHECK POINT   START OF SOLVER    

     CHECK POINT  END OF SOLVER       

       ELAPSED USER TIME (SEC)      =   8.5000    
       ELAPSED SYSTEM TIME (SEC)    =   0.0000    
       ELAPSED TOTAL CPU TIME (SEC) =   8.5000    
       ELAPSED WALLCLOCK TIME (SEC) =          8
 

 ***WARNING: SOLVER PROBLEM. NUMERICAL SINGULARITY WHEN PROCESSING NODE 
             ASSEMBLY.1 D.O.F. 6 RATIO = 9.98920E+09.

                  339 SEVERE DISCONTINUITIES OCCURRED DURING THIS ITERATION.
                  123 POINTS CHANGED FROM OPEN TO CLOSED
                  158 POINTS CHANGED FROM CLOSED TO OPEN
                   58 POINTS CHANGED FROM STICKING TO SLIPPING

               CONVERGENCE CHECKS FOR SEVERE DISCONTINUITY ITERATION     8

   MAX. PENETRATION ERROR 356.139E-06   AT NODE BATTERY-1.3891 OF CONTACT PAIR 
   (ASSEMBLY_BATTERY-1_BATTOP,ASSEMBLY_CF-2_CFBOT)
   MAX. CONTACT FORCE ERROR -734.818E-03   AT NODE BATTERY-1.3800 OF CONTACT 
   PAIR (ASSEMBLY_BATTERY-1_BATTOP,ASSEMBLY_CF-2_CFBOT)
          THE ESTIMATED CONTACT FORCE ERROR IS OUTSIDE OF CONVERGENCE TOLERANCES.

 AVERAGE FORCE                      0.200       TIME AVG. FORCE       0.200    
 LARGEST RESIDUAL FORCE            -0.454       AT NODE       3800   DOF  3
   INSTANCE: BATTERY-1                                                                       
 LARGEST INCREMENT OF DISP.        -0.246       AT NODE       3477   DOF  3
   INSTANCE: BATTERY-1                                                                       
 LARGEST CORRECTION TO DISP.        8.091E-02   AT NODE        169   DOF  1
   INSTANCE: CF-1                                                                            
          FORCE     EQUILIBRIUM NOT ACHIEVED WITHIN TOLERANCE.

 AVERAGE MOMENT                     0.152       TIME AVG. MOMENT      0.152    
 LARGEST RESIDUAL MOMENT           -0.177       AT NODE          1   DOF  4
   INSTANCE:                                                                                 
 LARGEST INCREMENT OF ROTATION      9.025E-03   AT NODE        568   DOF  5
   INSTANCE: CF-2                                                                            
 LARGEST CORRECTION TO ROTATION     7.368E-04   AT NODE       1097   DOF  6
   INSTANCE: CF-2                                                                            
          MOMENT    EQUILIBRIUM NOT ACHIEVED WITHIN TOLERANCE.

  NUMBER OF EQUATIONS =     31356     NUMBER OF RHS =    1
  NUMBER OF FLOATING PT. OPERATIONS =  7.80E+10

     CHECK POINT   START OF SOLVER    

     CHECK POINT  END OF SOLVER       

       ELAPSED USER TIME (SEC)      =   8.3000    
       ELAPSED SYSTEM TIME (SEC)    =   0.0000    
       ELAPSED TOTAL CPU TIME (SEC) =   8.3000    
       ELAPSED WALLCLOCK TIME (SEC) =          8
 

 ***WARNING: SOLVER PROBLEM. NUMERICAL SINGULARITY WHEN PROCESSING NODE 
             ASSEMBLY.1 D.O.F. 6 RATIO = 10.3988E+09 .

                  279 SEVERE DISCONTINUITIES OCCURRED DURING THIS ITERATION.
                  119 POINTS CHANGED FROM OPEN TO CLOSED
                  128 POINTS CHANGED FROM CLOSED TO OPEN
                   32 POINTS CHANGED FROM STICKING TO SLIPPING

               CONVERGENCE CHECKS FOR SEVERE DISCONTINUITY ITERATION     9

   MAX. PENETRATION ERROR 328.700E-06   AT NODE BATTERY-1.4124 OF CONTACT PAIR 
   (ASSEMBLY_BATTERY-1_BATTOP,ASSEMBLY_CF-2_CFBOT)
   MAX. CONTACT FORCE ERROR -995.605E-03   AT NODE BATTERY-1.2764 OF CONTACT 
   PAIR (ASSEMBLY_BATTERY-1_BATTOP,ASSEMBLY_CF-2_CFBOT)
          THE ESTIMATED CONTACT FORCE ERROR IS OUTSIDE OF CONVERGENCE TOLERANCES.

 AVERAGE FORCE                      0.200       TIME AVG. FORCE       0.200    
 LARGEST RESIDUAL FORCE             0.518       AT NODE       1062   DOF  3
   INSTANCE: CF-2                                                                            
 LARGEST INCREMENT OF DISP.        -0.246       AT NODE       3477   DOF  3
   INSTANCE: BATTERY-1                                                                       
 LARGEST CORRECTION TO DISP.        8.459E-03   AT NODE         94   DOF  2
   INSTANCE: CF-1                                                                            
          FORCE     EQUILIBRIUM NOT ACHIEVED WITHIN TOLERANCE.

 AVERAGE MOMENT                     0.152       TIME AVG. MOMENT      0.152    
 LARGEST RESIDUAL MOMENT            0.112       AT NODE          1   DOF  4
   INSTANCE:                                                                                 
 LARGEST INCREMENT OF ROTATION      8.932E-03   AT NODE        568   DOF  5
   INSTANCE: CF-2                                                                            
 LARGEST CORRECTION TO ROTATION    -6.407E-04   AT NODE       1059   DOF  5
   INSTANCE: CF-2                                                                            
          MOMENT    EQUILIBRIUM NOT ACHIEVED WITHIN TOLERANCE.

  NUMBER OF EQUATIONS =     31356     NUMBER OF RHS =    1
  NUMBER OF FLOATING PT. OPERATIONS =  7.92E+10

     CHECK POINT   START OF SOLVER    

     CHECK POINT  END OF SOLVER       

       ELAPSED USER TIME (SEC)      =   8.5000    
       ELAPSED SYSTEM TIME (SEC)    =   0.0000    
       ELAPSED TOTAL CPU TIME (SEC) =   8.5000    
       ELAPSED WALLCLOCK TIME (SEC) =          9
 

 ***WARNING: SOLVER PROBLEM. NUMERICAL SINGULARITY WHEN PROCESSING NODE 
             ASSEMBLY.1 D.O.F. 6 RATIO = 10.6843E+09 .

                  261 SEVERE DISCONTINUITIES OCCURRED DURING THIS ITERATION.
                   96 POINTS CHANGED FROM OPEN TO CLOSED
                  145 POINTS CHANGED FROM CLOSED TO OPEN
                   20 POINTS CHANGED FROM STICKING TO SLIPPING

               CONVERGENCE CHECKS FOR SEVERE DISCONTINUITY ITERATION    10

   MAX. PENETRATION ERROR 251.713E-06   AT NODE BATTERY-1.3767 OF CONTACT PAIR 
   (ASSEMBLY_BATTERY-1_BATTOP,ASSEMBLY_CF-2_CFBOT)
   MAX. CONTACT FORCE ERROR -868.748E-03   AT NODE BATTERY-1.2777 OF CONTACT 
   PAIR (ASSEMBLY_BATTERY-1_BATTOP,ASSEMBLY_CF-2_CFBOT)
          THE ESTIMATED CONTACT FORCE ERROR IS OUTSIDE OF CONVERGENCE TOLERANCES.

 AVERAGE FORCE                      0.200       TIME AVG. FORCE       0.200    
 LARGEST RESIDUAL FORCE            -0.502       AT NODE       3574   DOF  3
   INSTANCE: BATTERY-1                                                                       
 LARGEST INCREMENT OF DISP.        -0.247       AT NODE       3477   DOF  3
   INSTANCE: BATTERY-1                                                                       
 LARGEST CORRECTION TO DISP.        3.527E-03   AT NODE        497   DOF  3
   INSTANCE: CF-2                                                                            
          FORCE     EQUILIBRIUM NOT ACHIEVED WITHIN TOLERANCE.

 AVERAGE MOMENT                     0.152       TIME AVG. MOMENT      0.152    
 LARGEST RESIDUAL MOMENT            1.421E-02   AT NODE        351   DOF  5
   INSTANCE: CF-2                                                                            
 LARGEST INCREMENT OF ROTATION      8.825E-03   AT NODE        531   DOF  5
   INSTANCE: CF-2                                                                            
 LARGEST CORRECTION TO ROTATION     5.396E-04   AT NODE        426   DOF  5
   INSTANCE: CF-2                                                                            
          MOMENT    EQUILIBRIUM NOT ACHIEVED WITHIN TOLERANCE.

  NUMBER OF EQUATIONS =     31356     NUMBER OF RHS =    1
  NUMBER OF FLOATING PT. OPERATIONS =  7.68E+10

     CHECK POINT   START OF SOLVER    

     CHECK POINT  END OF SOLVER       

       ELAPSED USER TIME (SEC)      =   8.2000    
       ELAPSED SYSTEM TIME (SEC)    =  0.10000    
       ELAPSED TOTAL CPU TIME (SEC) =   8.3000    
       ELAPSED WALLCLOCK TIME (SEC) =          8
 

 ***WARNING: SOLVER PROBLEM. NUMERICAL SINGULARITY WHEN PROCESSING NODE 
             ASSEMBLY.1 D.O.F. 6 RATIO = 10.9913E+09 .

                  248 SEVERE DISCONTINUITIES OCCURRED DURING THIS ITERATION.
                   98 POINTS CHANGED FROM OPEN TO CLOSED
                  128 POINTS CHANGED FROM CLOSED TO OPEN
                   22 POINTS CHANGED FROM STICKING TO SLIPPING

               CONVERGENCE CHECKS FOR SEVERE DISCONTINUITY ITERATION    11

   MAX. PENETRATION ERROR 192.961E-06   AT NODE BATTERY-1.3415 OF CONTACT PAIR 
   (ASSEMBLY_BATTERY-1_BATTOP,ASSEMBLY_CF-2_CFBOT)
   MAX. CONTACT FORCE ERROR -535.468E-03   AT NODE BATTERY-1.3286 OF CONTACT 
   PAIR (ASSEMBLY_BATTERY-1_BATTOP,ASSEMBLY_CF-2_CFBOT)
          THE ESTIMATED CONTACT FORCE ERROR IS OUTSIDE OF CONVERGENCE TOLERANCES.

 AVERAGE FORCE                      0.200       TIME AVG. FORCE       0.200    
 LARGEST RESIDUAL FORCE             0.380       AT NODE        391   DOF  3
   INSTANCE: CF-2                                                                            
 LARGEST INCREMENT OF DISP.        -0.247       AT NODE       3477   DOF  3
   INSTANCE: BATTERY-1                                                                       
 LARGEST CORRECTION TO DISP.        5.489E-03   AT NODE        169   DOF  1
   INSTANCE: CF-1                                                                            
          FORCE     EQUILIBRIUM NOT ACHIEVED WITHIN TOLERANCE.

 AVERAGE MOMENT                     0.152       TIME AVG. MOMENT      0.152    
 LARGEST RESIDUAL MOMENT            0.152       AT NODE          1   DOF  4
   INSTANCE:                                                                                 
 LARGEST INCREMENT OF ROTATION      8.758E-03   AT NODE        531   DOF  5
   INSTANCE: CF-2                                                                            
 LARGEST CORRECTION TO ROTATION    -5.174E-04   AT NODE       1027   DOF  5
   INSTANCE: CF-2                                                                            
          MOMENT    EQUILIBRIUM NOT ACHIEVED WITHIN TOLERANCE.

  NUMBER OF EQUATIONS =     31356     NUMBER OF RHS =    1
  NUMBER OF FLOATING PT. OPERATIONS =  7.49E+10

     CHECK POINT   START OF SOLVER    

     CHECK POINT  END OF SOLVER       

       ELAPSED USER TIME (SEC)      =   8.0000    
       ELAPSED SYSTEM TIME (SEC)    =   0.0000    
       ELAPSED TOTAL CPU TIME (SEC) =   8.0000    
       ELAPSED WALLCLOCK TIME (SEC) =          8
 

 ***WARNING: SOLVER PROBLEM. NUMERICAL SINGULARITY WHEN PROCESSING NODE 
             ASSEMBLY.1 D.O.F. 6 RATIO = 11.3207E+09 .

                  206 SEVERE DISCONTINUITIES OCCURRED DURING THIS ITERATION.
                   60 POINTS CHANGED FROM OPEN TO CLOSED
                  126 POINTS CHANGED FROM CLOSED TO OPEN
                   20 POINTS CHANGED FROM STICKING TO SLIPPING

               CONVERGENCE CHECKS FOR SEVERE DISCONTINUITY ITERATION    12

   MAX. PENETRATION ERROR 192.160E-06   AT NODE BATTERY-1.3655 OF CONTACT PAIR 
   (ASSEMBLY_BATTERY-1_BATTOP,ASSEMBLY_CF-2_CFBOT)
   MAX. CONTACT FORCE ERROR -485.026E-03   AT NODE BATTERY-1.3936 OF CONTACT 
   PAIR (ASSEMBLY_BATTERY-1_BATTOP,ASSEMBLY_CF-2_CFBOT)
          THE ESTIMATED CONTACT FORCE ERROR IS OUTSIDE OF CONVERGENCE TOLERANCES.

 AVERAGE FORCE                      0.200       TIME AVG. FORCE       0.200    
 LARGEST RESIDUAL FORCE             0.391       AT NODE       1002   DOF  3
   INSTANCE: CF-2                                                                            
 LARGEST INCREMENT OF DISP.        -0.247       AT NODE       2402   DOF  3
   INSTANCE: BATTERY-1                                                                       
 LARGEST CORRECTION TO DISP.       -1.473E-02   AT NODE          7   DOF  1
   INSTANCE: CF-2                                                                            
          FORCE     EQUILIBRIUM NOT ACHIEVED WITHIN TOLERANCE.

 AVERAGE MOMENT                     0.152       TIME AVG. MOMENT      0.152    
 LARGEST RESIDUAL MOMENT            0.131       AT NODE          1   DOF  4
   INSTANCE:                                                                                 
 LARGEST INCREMENT OF ROTATION      8.723E-03   AT NODE        531   DOF  5
   INSTANCE: CF-2                                                                            
 LARGEST CORRECTION TO ROTATION    -5.329E-04   AT NODE        992   DOF  5
   INSTANCE: CF-2                                                                            
          MOMENT    EQUILIBRIUM NOT ACHIEVED WITHIN TOLERANCE.

  NUMBER OF EQUATIONS =     31356     NUMBER OF RHS =    1
  NUMBER OF FLOATING PT. OPERATIONS =  7.44E+10

     CHECK POINT   START OF SOLVER    

     CHECK POINT  END OF SOLVER       

       ELAPSED USER TIME (SEC)      =   7.9000    
       ELAPSED SYSTEM TIME (SEC)    =   0.0000    
       ELAPSED TOTAL CPU TIME (SEC) =   7.9000    
       ELAPSED WALLCLOCK TIME (SEC) =          8
 

 ***WARNING: SOLVER PROBLEM. NUMERICAL SINGULARITY WHEN PROCESSING NODE 
             ASSEMBLY.1 D.O.F. 6 RATIO = 11.6046E+09 .

                  161 SEVERE DISCONTINUITIES OCCURRED DURING THIS ITERATION.
                   45 POINTS CHANGED FROM OPEN TO CLOSED
                  102 POINTS CHANGED FROM CLOSED TO OPEN
                   14 POINTS CHANGED FROM STICKING TO SLIPPING

               CONVERGENCE CHECKS FOR SEVERE DISCONTINUITY ITERATION    13

   MAX. PENETRATION ERROR 189.965E-06   AT NODE BATTERY-1.3762 OF CONTACT PAIR 
   (ASSEMBLY_BATTERY-1_BATTOP,ASSEMBLY_CF-2_CFBOT)
   MAX. CONTACT FORCE ERROR -598.570E-03   AT NODE BATTERY-1.3881 OF CONTACT 
   PAIR (ASSEMBLY_BATTERY-1_BATTOP,ASSEMBLY_CF-2_CFBOT)
          THE ESTIMATED CONTACT FORCE ERROR IS OUTSIDE OF CONVERGENCE TOLERANCES.

 AVERAGE FORCE                      0.200       TIME AVG. FORCE       0.200    
 LARGEST RESIDUAL FORCE             0.448       AT NODE        310   DOF  3
   INSTANCE: CF-2                                                                            
 LARGEST INCREMENT OF DISP.        -0.247       AT NODE       3477   DOF  3
   INSTANCE: BATTERY-1                                                                       
 LARGEST CORRECTION TO DISP.        2.520E-02   AT NODE        169   DOF  1
   INSTANCE: CF-1                                                                            
          FORCE     EQUILIBRIUM NOT ACHIEVED WITHIN TOLERANCE.

 AVERAGE MOMENT                     0.152       TIME AVG. MOMENT      0.152    
 LARGEST RESIDUAL MOMENT            3.204E-03   AT NODE          1   DOF  6
   INSTANCE:                                                                                 
 LARGEST INCREMENT OF ROTATION      8.712E-03   AT NODE        531   DOF  5
   INSTANCE: CF-2                                                                            
 LARGEST CORRECTION TO ROTATION     5.167E-04   AT NODE        346   DOF  5
   INSTANCE: CF-2                                                                            
          MOMENT    EQUILIBRIUM NOT ACHIEVED WITHIN TOLERANCE.

  NUMBER OF EQUATIONS =     31356     NUMBER OF RHS =    1
  NUMBER OF FLOATING PT. OPERATIONS =  7.39E+10

     CHECK POINT   START OF SOLVER    

     CHECK POINT  END OF SOLVER       

       ELAPSED USER TIME (SEC)      =   8.0000    
       ELAPSED SYSTEM TIME (SEC)    =   0.0000    
       ELAPSED TOTAL CPU TIME (SEC) =   8.0000    
       ELAPSED WALLCLOCK TIME (SEC) =          8
 

 ***WARNING: SOLVER PROBLEM. NUMERICAL SINGULARITY WHEN PROCESSING NODE 
             ASSEMBLY.1 D.O.F. 6 RATIO = 11.8600E+09 .

                  146 SEVERE DISCONTINUITIES OCCURRED DURING THIS ITERATION.
                   56 POINTS CHANGED FROM OPEN TO CLOSED
                   81 POINTS CHANGED FROM CLOSED TO OPEN
                    9 POINTS CHANGED FROM STICKING TO SLIPPING

               CONVERGENCE CHECKS FOR SEVERE DISCONTINUITY ITERATION    14

   MAX. PENETRATION ERROR 200.022E-06   AT NODE BATTERY-1.907 OF CONTACT PAIR 
   (ASSEMBLY_BATTERY-1_BATBOT,ASSEMBLY_CF-1_CFTOP)
   MAX. CONTACT FORCE ERROR -707.681E-03   AT NODE BATTERY-1.3175 OF CONTACT 
   PAIR (ASSEMBLY_BATTERY-1_BATTOP,ASSEMBLY_CF-2_CFBOT)
          THE ESTIMATED CONTACT FORCE ERROR IS OUTSIDE OF CONVERGENCE TOLERANCES.

 AVERAGE FORCE                      0.200       TIME AVG. FORCE       0.200    
 LARGEST RESIDUAL FORCE            -0.417       AT NODE       3776   DOF  3
   INSTANCE: BATTERY-1                                                                       
 LARGEST INCREMENT OF DISP.        -0.247       AT NODE        512   DOF  3
   INSTANCE: BATTERY-1                                                                       
 LARGEST CORRECTION TO DISP.       -1.001E-02   AT NODE          4   DOF  1
   INSTANCE: CF-1                                                                            
          FORCE     EQUILIBRIUM NOT ACHIEVED WITHIN TOLERANCE.

 AVERAGE MOMENT                     0.152       TIME AVG. MOMENT      0.152    
 LARGEST RESIDUAL MOMENT           -5.032E-03   AT NODE          1   DOF  5
   INSTANCE:                                                                                 
 LARGEST INCREMENT OF ROTATION      8.705E-03   AT NODE        531   DOF  5
   INSTANCE: CF-2                                                                            
 LARGEST CORRECTION TO ROTATION    -5.458E-04   AT NODE        960   DOF  5
   INSTANCE: CF-2                                                                            
          MOMENT    EQUILIBRIUM NOT ACHIEVED WITHIN TOLERANCE.

  NUMBER OF EQUATIONS =     31356     NUMBER OF RHS =    1
  NUMBER OF FLOATING PT. OPERATIONS =  7.42E+10

     CHECK POINT   START OF SOLVER    

     CHECK POINT  END OF SOLVER       

       ELAPSED USER TIME (SEC)      =   7.9000    
       ELAPSED SYSTEM TIME (SEC)    =   0.0000    
       ELAPSED TOTAL CPU TIME (SEC) =   7.9000    
       ELAPSED WALLCLOCK TIME (SEC) =          8
 

 ***WARNING: SOLVER PROBLEM. NUMERICAL SINGULARITY WHEN PROCESSING NODE 
             ASSEMBLY.1 D.O.F. 6 RATIO = 12.0824E+09 .

                  110 SEVERE DISCONTINUITIES OCCURRED DURING THIS ITERATION.
                   44 POINTS CHANGED FROM OPEN TO CLOSED
                   59 POINTS CHANGED FROM CLOSED TO OPEN
                    7 POINTS CHANGED FROM STICKING TO SLIPPING

               CONVERGENCE CHECKS FOR SEVERE DISCONTINUITY ITERATION    15

   MAX. PENETRATION ERROR 144.351E-06   AT NODE BATTERY-1.1268 OF CONTACT PAIR 
   (ASSEMBLY_BATTERY-1_BATBOT,ASSEMBLY_CF-1_CFTOP)
   MAX. CONTACT FORCE ERROR -420.108E-03   AT NODE BATTERY-1.3043 OF CONTACT 
   PAIR (ASSEMBLY_BATTERY-1_BATTOP,ASSEMBLY_CF-2_CFBOT)
          THE ESTIMATED CONTACT FORCE ERROR IS OUTSIDE OF CONVERGENCE TOLERANCES.

 AVERAGE FORCE                      0.200       TIME AVG. FORCE       0.200    
 LARGEST RESIDUAL FORCE            -0.236       AT NODE       3043   DOF  3
   INSTANCE: BATTERY-1                                                                       
 LARGEST INCREMENT OF DISP.        -0.247       AT NODE        512   DOF  3
   INSTANCE: BATTERY-1                                                                       
 LARGEST CORRECTION TO DISP.        1.573E-02   AT NODE        169   DOF  1
   INSTANCE: CF-1                                                                            
          FORCE     EQUILIBRIUM NOT ACHIEVED WITHIN TOLERANCE.

 AVERAGE MOMENT                     0.152       TIME AVG. MOMENT      0.152    
 LARGEST RESIDUAL MOMENT           -3.032E-03   AT NODE          1   DOF  5
   INSTANCE:                                                                                 
 LARGEST INCREMENT OF ROTATION      8.699E-03   AT NODE        531   DOF  5
   INSTANCE: CF-2                                                                            
 LARGEST CORRECTION TO ROTATION    -4.500E-04   AT NODE        924   DOF  5
   INSTANCE: CF-2                                                                            
          MOMENT    EQUILIBRIUM NOT ACHIEVED WITHIN TOLERANCE.

  NUMBER OF EQUATIONS =     31356     NUMBER OF RHS =    1
  NUMBER OF FLOATING PT. OPERATIONS =  7.42E+10

     CHECK POINT   START OF SOLVER    

     CHECK POINT  END OF SOLVER       

       ELAPSED USER TIME (SEC)      =   8.0000    
       ELAPSED SYSTEM TIME (SEC)    =   0.0000    
       ELAPSED TOTAL CPU TIME (SEC) =   8.0000    
       ELAPSED WALLCLOCK TIME (SEC) =          8
 

 ***WARNING: SOLVER PROBLEM. NUMERICAL SINGULARITY WHEN PROCESSING NODE 
             ASSEMBLY.1 D.O.F. 6 RATIO = 12.3084E+09 .

                   55 SEVERE DISCONTINUITIES OCCURRED DURING THIS ITERATION.
                   11 POINTS CHANGED FROM OPEN TO CLOSED
                   44 POINTS CHANGED FROM CLOSED TO OPEN

               CONVERGENCE CHECKS FOR SEVERE DISCONTINUITY ITERATION    16

   MAX. PENETRATION ERROR 39.2019E-06  AT NODE BATTERY-1.742 OF CONTACT PAIR 
   (ASSEMBLY_BATTERY-1_BATBOT,ASSEMBLY_CF-1_CFTOP)
   MAX. CONTACT FORCE ERROR -885.464E-03   AT NODE BATTERY-1.2768 OF CONTACT 
   PAIR (ASSEMBLY_BATTERY-1_BATTOP,ASSEMBLY_CF-2_CFBOT)
          THE ESTIMATED CONTACT FORCE ERROR IS OUTSIDE OF CONVERGENCE TOLERANCES.

 AVERAGE FORCE                      0.200       TIME AVG. FORCE       0.200    
 LARGEST RESIDUAL FORCE             0.128       AT NODE        276   DOF  3
   INSTANCE: CF-2                                                                            
 LARGEST INCREMENT OF DISP.        -0.247       AT NODE        512   DOF  3
   INSTANCE: BATTERY-1                                                                       
 LARGEST CORRECTION TO DISP.        2.076E-02   AT NODE         92   DOF  2
   INSTANCE: CF-1                                                                            
          FORCE     EQUILIBRIUM NOT ACHIEVED WITHIN TOLERANCE.

 AVERAGE MOMENT                     0.152       TIME AVG. MOMENT      0.152    
 LARGEST RESIDUAL MOMENT           -8.681E-02   AT NODE          1   DOF  4
   INSTANCE:                                                                                 
 LARGEST INCREMENT OF ROTATION      8.693E-03   AT NODE        531   DOF  5
   INSTANCE: CF-2                                                                            
 LARGEST CORRECTION TO ROTATION    -1.892E-04   AT NODE        238   DOF  6
   INSTANCE: CF-1                                                                            
          MOMENT    EQUILIBRIUM NOT ACHIEVED WITHIN TOLERANCE.

  NUMBER OF EQUATIONS =     31356     NUMBER OF RHS =    1
  NUMBER OF FLOATING PT. OPERATIONS =  7.34E+10

     CHECK POINT   START OF SOLVER    

     CHECK POINT  END OF SOLVER       

       ELAPSED USER TIME (SEC)      =   7.8000    
       ELAPSED SYSTEM TIME (SEC)    =   0.0000    
       ELAPSED TOTAL CPU TIME (SEC) =   7.8000    
       ELAPSED WALLCLOCK TIME (SEC) =          8
 

 ***WARNING: SOLVER PROBLEM. NUMERICAL SINGULARITY WHEN PROCESSING NODE 
             ASSEMBLY.1 D.O.F. 6 RATIO = 12.3817E+09 .

                   31 SEVERE DISCONTINUITIES OCCURRED DURING THIS ITERATION.
                    7 POINTS CHANGED FROM OPEN TO CLOSED
                   23 POINTS CHANGED FROM CLOSED TO OPEN
                    1 POINTS CHANGED FROM STICKING TO SLIPPING

               CONVERGENCE CHECKS FOR SEVERE DISCONTINUITY ITERATION    17

   MAX. PENETRATION ERROR 20.8213E-06  AT NODE BATTERY-1.167 OF CONTACT PAIR 
   (ASSEMBLY_BATTERY-1_BATBOT,ASSEMBLY_CF-1_CFTOP)
   MAX. CONTACT FORCE ERROR -75.2234E-03  AT NODE BATTERY-1.3044 OF CONTACT 
   PAIR (ASSEMBLY_BATTERY-1_BATTOP,ASSEMBLY_CF-2_CFBOT)
          THE CONTACT CONSTRAINT ERRORS ARE WITHIN THE TOLERANCES.

 AVERAGE FORCE                      0.200       TIME AVG. FORCE       0.200    
 LARGEST RESIDUAL FORCE            -4.263E-02   AT NODE       3044   DOF  3
   INSTANCE: BATTERY-1                                                                       
 LARGEST INCREMENT OF DISP.        -0.247       AT NODE        512   DOF  3
   INSTANCE: BATTERY-1                                                                       
 LARGEST CORRECTION TO DISP.        1.777E-02   AT NODE        165   DOF  1
   INSTANCE: CF-1                                                                            
          FORCE     EQUILIBRIUM NOT ACHIEVED WITHIN TOLERANCE.

 AVERAGE MOMENT                     0.152       TIME AVG. MOMENT      0.152    
 LARGEST RESIDUAL MOMENT            4.000E-03   AT NODE          1   DOF  5
   INSTANCE:                                                                                 
 LARGEST INCREMENT OF ROTATION      8.688E-03   AT NODE        531   DOF  5
   INSTANCE: CF-2                                                                            
 LARGEST CORRECTION TO ROTATION     1.618E-04   AT NODE        241   DOF  6
   INSTANCE: CF-1                                                                            
          MOMENT    EQUILIBRIUM NOT ACHIEVED WITHIN TOLERANCE.

  NUMBER OF EQUATIONS =     31356     NUMBER OF RHS =    1
  NUMBER OF FLOATING PT. OPERATIONS =  7.31E+10

     CHECK POINT   START OF SOLVER    

     CHECK POINT  END OF SOLVER       

       ELAPSED USER TIME (SEC)      =   7.8000    
       ELAPSED SYSTEM TIME (SEC)    =   0.0000    
       ELAPSED TOTAL CPU TIME (SEC) =   7.8000    
       ELAPSED WALLCLOCK TIME (SEC) =          7
 

 ***WARNING: SOLVER PROBLEM. NUMERICAL SINGULARITY WHEN PROCESSING NODE 
             ASSEMBLY.1 D.O.F. 6 RATIO = 12.4242E+09 .

                    7 SEVERE DISCONTINUITIES OCCURRED DURING THIS ITERATION.
                    1 POINTS CHANGED FROM OPEN TO CLOSED
                    6 POINTS CHANGED FROM CLOSED TO OPEN

               CONVERGENCE CHECKS FOR SEVERE DISCONTINUITY ITERATION    18

   MAX. PENETRATION ERROR 1.17940E-06 AT NODE BATTERY-1.904 OF CONTACT PAIR 
   (ASSEMBLY_BATTERY-1_BATBOT,ASSEMBLY_CF-1_CFTOP)
   MAX. CONTACT FORCE ERROR -18.5046E-03  AT NODE BATTERY-1.167 OF CONTACT PAIR 
   (ASSEMBLY_BATTERY-1_BATBOT,ASSEMBLY_CF-1_CFTOP)
          THE CONTACT CONSTRAINT ERRORS ARE WITHIN THE TOLERANCES.

 AVERAGE FORCE                      0.200       TIME AVG. FORCE       0.200    
 LARGEST RESIDUAL FORCE             1.056E-02   AT NODE        167   DOF  3
   INSTANCE: BATTERY-1                                                                       
 LARGEST INCREMENT OF DISP.        -0.247       AT NODE        512   DOF  3
   INSTANCE: BATTERY-1                                                                       
 LARGEST CORRECTION TO DISP.        1.530E-02   AT NODE         92   DOF  2
   INSTANCE: CF-1                                                                            
          FORCE     EQUILIBRIUM NOT ACHIEVED WITHIN TOLERANCE.

 AVERAGE MOMENT                     0.152       TIME AVG. MOMENT      0.152    
 LARGEST RESIDUAL MOMENT            2.046E-03   AT NODE          1   DOF  4
   INSTANCE:                                                                                 
 LARGEST INCREMENT OF ROTATION      8.688E-03   AT NODE        531   DOF  5
   INSTANCE: CF-2                                                                            
 LARGEST CORRECTION TO ROTATION    -1.391E-04   AT NODE         24   DOF  6
   INSTANCE: CF-1                                                                            
          MOMENT    EQUILIBRIUM NOT ACHIEVED WITHIN TOLERANCE.

  NUMBER OF EQUATIONS =     31356     NUMBER OF RHS =    1
  NUMBER OF FLOATING PT. OPERATIONS =  7.26E+10

     CHECK POINT   START OF SOLVER    

     CHECK POINT  END OF SOLVER       

       ELAPSED USER TIME (SEC)      =   7.8000    
       ELAPSED SYSTEM TIME (SEC)    =   0.0000    
       ELAPSED TOTAL CPU TIME (SEC) =   7.8000    
       ELAPSED WALLCLOCK TIME (SEC) =          8
 

 ***WARNING: SOLVER PROBLEM. NUMERICAL SINGULARITY WHEN PROCESSING NODE 
             ASSEMBLY.1 D.O.F. 6 RATIO = 12.4335E+09 .

                    1 SEVERE DISCONTINUITIES OCCURRED DURING THIS ITERATION.
                    1 POINTS CHANGED FROM OPEN TO CLOSED

               CONVERGENCE CHECKS FOR SEVERE DISCONTINUITY ITERATION    19

   MAX. PENETRATION ERROR 12.0876E-09  AT NODE BATTERY-1.21 OF CONTACT PAIR 
   (ASSEMBLY_BATTERY-1_BATBOT,ASSEMBLY_CF-1_CFTOP)
   MAX. CONTACT FORCE ERROR 9.56814E-06 AT NODE BATTERY-1.21 OF CONTACT PAIR 
   (ASSEMBLY_BATTERY-1_BATBOT,ASSEMBLY_CF-1_CFTOP)
          THE CONTACT CONSTRAINT ERRORS ARE WITHIN THE TOLERANCES.

 AVERAGE FORCE                      0.200       TIME AVG. FORCE       0.200    
 LARGEST RESIDUAL FORCE             6.513E-06   AT NODE        904   DOF  3
   INSTANCE: BATTERY-1                                                                       
 LARGEST INCREMENT OF DISP.        -0.247       AT NODE        512   DOF  3
   INSTANCE: BATTERY-1                                                                       
 LARGEST CORRECTION TO DISP.        1.350E-02   AT NODE        100   DOF  1
   INSTANCE: CF-1                                                                            
          DISP.    CORRECTION TOO LARGE COMPARED TO DISP.    INCREMENT

 AVERAGE MOMENT                     0.152       TIME AVG. MOMENT      0.152    
 LARGEST RESIDUAL MOMENT           -4.691E-05   AT NODE          1   DOF  6
   INSTANCE:                                                                                 
 LARGEST INCREMENT OF ROTATION      8.688E-03   AT NODE        531   DOF  5
   INSTANCE: CF-2                                                                            
 LARGEST CORRECTION TO ROTATION     1.227E-04   AT NODE        892   DOF  6
   INSTANCE: CF-1                                                                            
 ESTIMATE OF ROTATION CORRECTION   -2.814E-06
 MOMENT    EQUILIB. ACCEPTED BASED ON SMALL RESIDUAL AND ESTIMATED CORRECTION

  NUMBER OF EQUATIONS =     31356     NUMBER OF RHS =    1
  NUMBER OF FLOATING PT. OPERATIONS =  7.26E+10

     CHECK POINT   START OF SOLVER    

     CHECK POINT  END OF SOLVER       

       ELAPSED USER TIME (SEC)      =   7.7000    
       ELAPSED SYSTEM TIME (SEC)    =  0.10000    
       ELAPSED TOTAL CPU TIME (SEC) =   7.8000    
       ELAPSED WALLCLOCK TIME (SEC) =          8
 

 ***WARNING: SOLVER PROBLEM. NUMERICAL SINGULARITY WHEN PROCESSING NODE 
             ASSEMBLY.1 D.O.F. 6 RATIO = 12.4345E+09 .

               CONVERGENCE CHECKS FOR EQUILIBRIUM ITERATION     1

   MAX. PENETRATION ERROR -1.62165E-12 AT NODE BATTERY-1.238 OF CONTACT PAIR 
   (ASSEMBLY_BATTERY-1_BATBOT,ASSEMBLY_CF-1_CFTOP)
   MAX. CONTACT FORCE ERROR -2.23642E-09 AT NODE BATTERY-1.238 OF CONTACT PAIR 
   (ASSEMBLY_BATTERY-1_BATBOT,ASSEMBLY_CF-1_CFTOP)
          THE CONTACT CONSTRAINTS HAVE CONVERGED.

 AVERAGE FORCE                      0.200       TIME AVG. FORCE       0.200    
 LARGEST RESIDUAL FORCE             3.657E-06   AT NODE       1342   DOF  2
   INSTANCE: CF-2                                                                            
 LARGEST INCREMENT OF DISP.        -0.247       AT NODE        512   DOF  3
   INSTANCE: BATTERY-1                                                                       
 LARGEST CORRECTION TO DISP.       -1.182E-02   AT NODE          9   DOF  1
   INSTANCE: POLYMER-1                                                                       
          DISP.    CORRECTION TOO LARGE COMPARED TO DISP.    INCREMENT

 AVERAGE MOMENT                     0.152       TIME AVG. MOMENT      0.152    
 LARGEST RESIDUAL MOMENT            3.812E-05   AT NODE          1   DOF  6
   INSTANCE:                                                                                 
 LARGEST INCREMENT OF ROTATION      8.688E-03   AT NODE        531   DOF  5
   INSTANCE: CF-2                                                                            
 LARGEST CORRECTION TO ROTATION    -1.075E-04   AT NODE       1357   DOF  6
   INSTANCE: CF-1                                                                            
          ROTATION CORRECTION TOO LARGE COMPARED TO ROTATION INCREMENT

  NUMBER OF EQUATIONS =     31356     NUMBER OF RHS =    1
  NUMBER OF FLOATING PT. OPERATIONS =  7.26E+10

     CHECK POINT   START OF SOLVER    

     CHECK POINT  END OF SOLVER       

       ELAPSED USER TIME (SEC)      =   7.8000    
       ELAPSED SYSTEM TIME (SEC)    =   0.0000    
       ELAPSED TOTAL CPU TIME (SEC) =   7.8000    
       ELAPSED WALLCLOCK TIME (SEC) =          8
 

 ***WARNING: SOLVER PROBLEM. NUMERICAL SINGULARITY WHEN PROCESSING NODE 
             ASSEMBLY.1 D.O.F. 6 RATIO = 12.4345E+09 .

               CONVERGENCE CHECKS FOR EQUILIBRIUM ITERATION     2

   MAX. PENETRATION ERROR -1.03828E-12 AT NODE BATTERY-1.394 OF CONTACT PAIR 
   (ASSEMBLY_BATTERY-1_BATBOT,ASSEMBLY_CF-1_CFTOP)
   MAX. CONTACT FORCE ERROR -1.45606E-09 AT NODE BATTERY-1.452 OF CONTACT PAIR 
   (ASSEMBLY_BATTERY-1_BATBOT,ASSEMBLY_CF-1_CFTOP)
          THE CONTACT CONSTRAINTS HAVE CONVERGED.

 AVERAGE FORCE                      0.200       TIME AVG. FORCE       0.200    
 LARGEST RESIDUAL FORCE            -3.213E-06   AT NODE       1342   DOF  2
   INSTANCE: CF-2                                                                            
 LARGEST INCREMENT OF DISP.        -0.247       AT NODE        512   DOF  3
   INSTANCE: BATTERY-1                                                                       
 LARGEST CORRECTION TO DISP.        1.039E-02   AT NODE          9   DOF  1
   INSTANCE: POLYMER-1                                                                       
          DISP.    CORRECTION TOO LARGE COMPARED TO DISP.    INCREMENT

 AVERAGE MOMENT                     0.152       TIME AVG. MOMENT      0.152    
 LARGEST RESIDUAL MOMENT           -3.362E-05   AT NODE          1   DOF  6
   INSTANCE:                                                                                 
 LARGEST INCREMENT OF ROTATION      8.688E-03   AT NODE        531   DOF  5
   INSTANCE: CF-2                                                                            
 LARGEST CORRECTION TO ROTATION     9.443E-05   AT NODE       1357   DOF  6
   INSTANCE: CF-1                                                                            
 ESTIMATE OF ROTATION CORRECTION   -8.327E-05
 MOMENT    EQUILIB. ACCEPTED BASED ON SMALL RESIDUAL AND ESTIMATED CORRECTION

  NUMBER OF EQUATIONS =     31356     NUMBER OF RHS =    1
  NUMBER OF FLOATING PT. OPERATIONS =  7.26E+10

     CHECK POINT   START OF SOLVER    

     CHECK POINT  END OF SOLVER       

       ELAPSED USER TIME (SEC)      =   7.7000    
       ELAPSED SYSTEM TIME (SEC)    =  0.10000    
       ELAPSED TOTAL CPU TIME (SEC) =   7.8000    
       ELAPSED WALLCLOCK TIME (SEC) =          8
 

 ***WARNING: SOLVER PROBLEM. NUMERICAL SINGULARITY WHEN PROCESSING NODE 
             ASSEMBLY.1 D.O.F. 6 RATIO = 12.4337E+09 .

               CONVERGENCE CHECKS FOR EQUILIBRIUM ITERATION     3

   MAX. PENETRATION ERROR -1.09296E-12 AT NODE BATTERY-1.238 OF CONTACT PAIR 
   (ASSEMBLY_BATTERY-1_BATBOT,ASSEMBLY_CF-1_CFTOP)
   MAX. CONTACT FORCE ERROR -1.50730E-09 AT NODE BATTERY-1.238 OF CONTACT PAIR 
   (ASSEMBLY_BATTERY-1_BATBOT,ASSEMBLY_CF-1_CFTOP)
          THE CONTACT CONSTRAINTS HAVE CONVERGED.

 AVERAGE FORCE                      0.200       TIME AVG. FORCE       0.200    
 LARGEST RESIDUAL FORCE             2.824E-06   AT NODE       1342   DOF  2
   INSTANCE: CF-2                                                                            
 LARGEST INCREMENT OF DISP.        -0.247       AT NODE        512   DOF  3
   INSTANCE: BATTERY-1                                                                       
 LARGEST CORRECTION TO DISP.       -9.128E-03   AT NODE          9   DOF  1
   INSTANCE: POLYMER-1                                                                       
          DISP.    CORRECTION TOO LARGE COMPARED TO DISP.    INCREMENT

 AVERAGE MOMENT                     0.152       TIME AVG. MOMENT      0.152    
 LARGEST RESIDUAL MOMENT            2.945E-05   AT NODE          1   DOF  6
   INSTANCE:                                                                                 
 LARGEST INCREMENT OF ROTATION      8.688E-03   AT NODE        531   DOF  5
   INSTANCE: CF-2                                                                            
 LARGEST CORRECTION TO ROTATION    -8.298E-05   AT NODE       1357   DOF  6
   INSTANCE: CF-1                                                                            
          THE MOMENT    EQUILIBRIUM EQUATIONS HAVE CONVERGED

  NUMBER OF EQUATIONS =     31356     NUMBER OF RHS =    1
  NUMBER OF FLOATING PT. OPERATIONS =  7.26E+10

     CHECK POINT   START OF SOLVER    

     CHECK POINT  END OF SOLVER       

       ELAPSED USER TIME (SEC)      =   7.7000    
       ELAPSED SYSTEM TIME (SEC)    =   0.0000    
       ELAPSED TOTAL CPU TIME (SEC) =   7.7000    
       ELAPSED WALLCLOCK TIME (SEC) =          7
 

 ***WARNING: SOLVER PROBLEM. NUMERICAL SINGULARITY WHEN PROCESSING NODE 
             ASSEMBLY.1 D.O.F. 6 RATIO = 12.4349E+09 .

               CONVERGENCE CHECKS FOR EQUILIBRIUM ITERATION     4

   MAX. PENETRATION ERROR -619.184E-15   AT NODE BATTERY-1.394 OF CONTACT PAIR 
   (ASSEMBLY_BATTERY-1_BATBOT,ASSEMBLY_CF-1_CFTOP)
   MAX. CONTACT FORCE ERROR -876.929E-12   AT NODE BATTERY-1.452 OF CONTACT 
   PAIR (ASSEMBLY_BATTERY-1_BATBOT,ASSEMBLY_CF-1_CFTOP)
          THE CONTACT CONSTRAINTS HAVE CONVERGED.

 AVERAGE FORCE                      0.200       TIME AVG. FORCE       0.200    
 LARGEST RESIDUAL FORCE            -2.481E-06   AT NODE       1342   DOF  2
   INSTANCE: CF-2                                                                            
 LARGEST INCREMENT OF DISP.        -0.247       AT NODE        512   DOF  3
   INSTANCE: BATTERY-1                                                                       
 LARGEST CORRECTION TO DISP.        8.021E-03   AT NODE          9   DOF  1
   INSTANCE: POLYMER-1                                                                       
          DISP.    CORRECTION TOO LARGE COMPARED TO DISP.    INCREMENT

 AVERAGE MOMENT                     0.152       TIME AVG. MOMENT      0.152    
 LARGEST RESIDUAL MOMENT           -2.595E-05   AT NODE          1   DOF  6
   INSTANCE:                                                                                 
 LARGEST INCREMENT OF ROTATION      8.688E-03   AT NODE        531   DOF  5
   INSTANCE: CF-2                                                                            
 LARGEST CORRECTION TO ROTATION     7.292E-05   AT NODE       1357   DOF  6
   INSTANCE: CF-1                                                                            
          THE MOMENT    EQUILIBRIUM EQUATIONS HAVE CONVERGED

  NUMBER OF EQUATIONS =     31356     NUMBER OF RHS =    1
  NUMBER OF FLOATING PT. OPERATIONS =  7.26E+10

     CHECK POINT   START OF SOLVER    

     CHECK POINT  END OF SOLVER       

       ELAPSED USER TIME (SEC)      =   7.8000    
       ELAPSED SYSTEM TIME (SEC)    =   0.0000    
       ELAPSED TOTAL CPU TIME (SEC) =   7.8000    
       ELAPSED WALLCLOCK TIME (SEC) =          8
 

 ***WARNING: SOLVER PROBLEM. NUMERICAL SINGULARITY WHEN PROCESSING NODE 
             ASSEMBLY.1 D.O.F. 6 RATIO = 12.4339E+09 .

               CONVERGENCE CHECKS FOR EQUILIBRIUM ITERATION     5

   MAX. PENETRATION ERROR -748.958E-15   AT NODE BATTERY-1.238 OF CONTACT PAIR 
   (ASSEMBLY_BATTERY-1_BATBOT,ASSEMBLY_CF-1_CFTOP)
   MAX. CONTACT FORCE ERROR -1.03289E-09 AT NODE BATTERY-1.238 OF CONTACT PAIR 
   (ASSEMBLY_BATTERY-1_BATBOT,ASSEMBLY_CF-1_CFTOP)
          THE CONTACT CONSTRAINTS HAVE CONVERGED.

 AVERAGE FORCE                      0.200       TIME AVG. FORCE       0.200    
 LARGEST RESIDUAL FORCE             2.181E-06   AT NODE       1342   DOF  2
   INSTANCE: CF-2                                                                            
 LARGEST INCREMENT OF DISP.        -0.247       AT NODE        512   DOF  3
   INSTANCE: BATTERY-1                                                                       
 LARGEST CORRECTION TO DISP.       -7.049E-03   AT NODE          9   DOF  1
   INSTANCE: POLYMER-1                                                                       
          DISP.    CORRECTION TOO LARGE COMPARED TO DISP.    INCREMENT

 AVERAGE MOMENT                     0.152       TIME AVG. MOMENT      0.152    
 LARGEST RESIDUAL MOMENT            2.275E-05   AT NODE          1   DOF  6
   INSTANCE:                                                                                 
 LARGEST INCREMENT OF ROTATION      8.688E-03   AT NODE        531   DOF  5
   INSTANCE: CF-2                                                                            
 LARGEST CORRECTION TO ROTATION    -6.408E-05   AT NODE       1357   DOF  6
   INSTANCE: CF-1                                                                            
          THE MOMENT    EQUILIBRIUM EQUATIONS HAVE CONVERGED

  NUMBER OF EQUATIONS =     31356     NUMBER OF RHS =    1
  NUMBER OF FLOATING PT. OPERATIONS =  7.26E+10

     CHECK POINT   START OF SOLVER    

     CHECK POINT  END OF SOLVER       

       ELAPSED USER TIME (SEC)      =   7.8000    
       ELAPSED SYSTEM TIME (SEC)    =  0.10000    
       ELAPSED TOTAL CPU TIME (SEC) =   7.9000    
       ELAPSED WALLCLOCK TIME (SEC) =          8
 

 ***WARNING: SOLVER PROBLEM. NUMERICAL SINGULARITY WHEN PROCESSING NODE 
             ASSEMBLY.1 D.O.F. 6 RATIO = 12.4355E+09 .

               CONVERGENCE CHECKS FOR EQUILIBRIUM ITERATION     6

   MAX. PENETRATION ERROR -369.302E-15   AT NODE BATTERY-1.394 OF CONTACT PAIR 
   (ASSEMBLY_BATTERY-1_BATBOT,ASSEMBLY_CF-1_CFTOP)
   MAX. CONTACT FORCE ERROR -529.696E-12   AT NODE BATTERY-1.452 OF CONTACT 
   PAIR (ASSEMBLY_BATTERY-1_BATBOT,ASSEMBLY_CF-1_CFTOP)
          THE CONTACT CONSTRAINTS HAVE CONVERGED.

 AVERAGE FORCE                      0.200       TIME AVG. FORCE       0.200    
 LARGEST RESIDUAL FORCE            -1.916E-06   AT NODE       1342   DOF  2
   INSTANCE: CF-2                                                                            
 LARGEST INCREMENT OF DISP.        -0.247       AT NODE        512   DOF  3
   INSTANCE: BATTERY-1                                                                       
 LARGEST CORRECTION TO DISP.        6.195E-03   AT NODE          9   DOF  1
   INSTANCE: POLYMER-1                                                                       
          DISP.    CORRECTION TOO LARGE COMPARED TO DISP.    INCREMENT

 AVERAGE MOMENT                     0.152       TIME AVG. MOMENT      0.152    
 LARGEST RESIDUAL MOMENT           -2.004E-05   AT NODE          1   DOF  6
   INSTANCE:                                                                                 
 LARGEST INCREMENT OF ROTATION      8.688E-03   AT NODE        531   DOF  5
   INSTANCE: CF-2                                                                            
 LARGEST CORRECTION TO ROTATION     5.632E-05   AT NODE       1357   DOF  6
   INSTANCE: CF-1                                                                            
          THE MOMENT    EQUILIBRIUM EQUATIONS HAVE CONVERGED

  NUMBER OF EQUATIONS =     31356     NUMBER OF RHS =    1
  NUMBER OF FLOATING PT. OPERATIONS =  7.26E+10

     CHECK POINT   START OF SOLVER    

     CHECK POINT  END OF SOLVER       

       ELAPSED USER TIME (SEC)      =   7.7000    
       ELAPSED SYSTEM TIME (SEC)    =   0.0000    
       ELAPSED TOTAL CPU TIME (SEC) =   7.7000    
       ELAPSED WALLCLOCK TIME (SEC) =          8
 

 ***WARNING: SOLVER PROBLEM. NUMERICAL SINGULARITY WHEN PROCESSING NODE 
             ASSEMBLY.1 D.O.F. 6 RATIO = 12.4351E+09 .

               CONVERGENCE CHECKS FOR EQUILIBRIUM ITERATION     7

   MAX. PENETRATION ERROR -521.843E-15   AT NODE BATTERY-1.238 OF CONTACT PAIR 
   (ASSEMBLY_BATTERY-1_BATBOT,ASSEMBLY_CF-1_CFTOP)
   MAX. CONTACT FORCE ERROR -719.675E-12   AT NODE BATTERY-1.238 OF CONTACT 
   PAIR (ASSEMBLY_BATTERY-1_BATBOT,ASSEMBLY_CF-1_CFTOP)
          THE CONTACT CONSTRAINTS HAVE CONVERGED.

 AVERAGE FORCE                      0.200       TIME AVG. FORCE       0.200    
 LARGEST RESIDUAL FORCE             1.685E-06   AT NODE       1342   DOF  2
   INSTANCE: CF-2                                                                            
 LARGEST INCREMENT OF DISP.        -0.247       AT NODE        512   DOF  3
   INSTANCE: BATTERY-1                                                                       
 LARGEST CORRECTION TO DISP.       -5.445E-03   AT NODE          9   DOF  1
   INSTANCE: POLYMER-1                                                                       
          DISP.    CORRECTION TOO LARGE COMPARED TO DISP.    INCREMENT

 AVERAGE MOMENT                     0.152       TIME AVG. MOMENT      0.152    
 LARGEST RESIDUAL MOMENT            1.758E-05   AT NODE          1   DOF  6
   INSTANCE:                                                                                 
 LARGEST INCREMENT OF ROTATION      8.688E-03   AT NODE        531   DOF  5
   INSTANCE: CF-2                                                                            
 LARGEST CORRECTION TO ROTATION    -4.950E-05   AT NODE       1357   DOF  6
   INSTANCE: CF-1                                                                            
          THE MOMENT    EQUILIBRIUM EQUATIONS HAVE CONVERGED

  NUMBER OF EQUATIONS =     31356     NUMBER OF RHS =    1
  NUMBER OF FLOATING PT. OPERATIONS =  7.26E+10

     CHECK POINT   START OF SOLVER    

     CHECK POINT  END OF SOLVER       

       ELAPSED USER TIME (SEC)      =   7.7000    
       ELAPSED SYSTEM TIME (SEC)    =   0.0000    
       ELAPSED TOTAL CPU TIME (SEC) =   7.7000    
       ELAPSED WALLCLOCK TIME (SEC) =          8
 

 ***WARNING: SOLVER PROBLEM. NUMERICAL SINGULARITY WHEN PROCESSING NODE 
             ASSEMBLY.1 D.O.F. 6 RATIO = 12.4347E+09 .

               CONVERGENCE CHECKS FOR EQUILIBRIUM ITERATION     8

   MAX. PENETRATION ERROR 224.594E-15   AT NODE BATTERY-1.3581 OF CONTACT PAIR 
   (ASSEMBLY_BATTERY-1_BATTOP,ASSEMBLY_CF-2_CFBOT)
   MAX. CONTACT FORCE ERROR -321.205E-12   AT NODE BATTERY-1.452 OF CONTACT 
   PAIR (ASSEMBLY_BATTERY-1_BATBOT,ASSEMBLY_CF-1_CFTOP)
          THE CONTACT CONSTRAINTS HAVE CONVERGED.

 AVERAGE FORCE                      0.200       TIME AVG. FORCE       0.200    
 LARGEST RESIDUAL FORCE            -1.480E-06   AT NODE       1342   DOF  2
   INSTANCE: CF-2                                                                            
 LARGEST INCREMENT OF DISP.        -0.247       AT NODE        512   DOF  3
   INSTANCE: BATTERY-1                                                                       
 LARGEST CORRECTION TO DISP.        4.785E-03   AT NODE          9   DOF  1
   INSTANCE: POLYMER-1                                                                       
          DISP.    CORRECTION TOO LARGE COMPARED TO DISP.    INCREMENT

 AVERAGE MOMENT                     0.152       TIME AVG. MOMENT      0.152    
 LARGEST RESIDUAL MOMENT           -1.547E-05   AT NODE          1   DOF  6
   INSTANCE:                                                                                 
 LARGEST INCREMENT OF ROTATION      8.688E-03   AT NODE        531   DOF  5
   INSTANCE: CF-2                                                                            
 LARGEST CORRECTION TO ROTATION     4.350E-05   AT NODE       1357   DOF  6
   INSTANCE: CF-1                                                                            
          THE MOMENT    EQUILIBRIUM EQUATIONS HAVE CONVERGED

  NUMBER OF EQUATIONS =     31356     NUMBER OF RHS =    1
  NUMBER OF FLOATING PT. OPERATIONS =  7.26E+10

     CHECK POINT   START OF SOLVER    

     CHECK POINT  END OF SOLVER       

       ELAPSED USER TIME (SEC)      =   7.7000    
       ELAPSED SYSTEM TIME (SEC)    =   0.0000    
       ELAPSED TOTAL CPU TIME (SEC) =   7.7000    
       ELAPSED WALLCLOCK TIME (SEC) =          7
 

 ***WARNING: SOLVER PROBLEM. NUMERICAL SINGULARITY WHEN PROCESSING NODE 
             ASSEMBLY.1 D.O.F. 6 RATIO = 12.4345E+09 .

               CONVERGENCE CHECKS FOR EQUILIBRIUM ITERATION     9

   MAX. PENETRATION ERROR -369.222E-15   AT NODE BATTERY-1.238 OF CONTACT PAIR 
   (ASSEMBLY_BATTERY-1_BATBOT,ASSEMBLY_CF-1_CFTOP)
   MAX. CONTACT FORCE ERROR -509.194E-12   AT NODE BATTERY-1.238 OF CONTACT 
   PAIR (ASSEMBLY_BATTERY-1_BATBOT,ASSEMBLY_CF-1_CFTOP)
          THE CONTACT CONSTRAINTS HAVE CONVERGED.

 AVERAGE FORCE                      0.200       TIME AVG. FORCE       0.200    
 LARGEST RESIDUAL FORCE             1.301E-06   AT NODE       1342   DOF  2
   INSTANCE: CF-2                                                                            
 LARGEST INCREMENT OF DISP.        -0.247       AT NODE        512   DOF  3
   INSTANCE: BATTERY-1                                                                       
 LARGEST CORRECTION TO DISP.       -4.205E-03   AT NODE          9   DOF  1
   INSTANCE: POLYMER-1                                                                       
          DISP.    CORRECTION TOO LARGE COMPARED TO DISP.    INCREMENT

 AVERAGE MOMENT                     0.152       TIME AVG. MOMENT      0.152    
 LARGEST RESIDUAL MOMENT            1.358E-05   AT NODE          1   DOF  6
   INSTANCE:                                                                                 
 LARGEST INCREMENT OF ROTATION      8.688E-03   AT NODE        531   DOF  5
   INSTANCE: CF-2                                                                            
 LARGEST CORRECTION TO ROTATION    -3.823E-05   AT NODE       1357   DOF  6
   INSTANCE: CF-1                                                                            
          THE MOMENT    EQUILIBRIUM EQUATIONS HAVE CONVERGED

  NUMBER OF EQUATIONS =     31356     NUMBER OF RHS =    1
  NUMBER OF FLOATING PT. OPERATIONS =  7.26E+10

     CHECK POINT   START OF SOLVER    

     CHECK POINT  END OF SOLVER       

       ELAPSED USER TIME (SEC)      =   7.8000    
       ELAPSED SYSTEM TIME (SEC)    =   0.0000    
       ELAPSED TOTAL CPU TIME (SEC) =   7.8000    
       ELAPSED WALLCLOCK TIME (SEC) =          8
 

 ***WARNING: SOLVER PROBLEM. NUMERICAL SINGULARITY WHEN PROCESSING NODE 
             ASSEMBLY.1 D.O.F. 6 RATIO = 12.4350E+09 .

               CONVERGENCE CHECKS FOR EQUILIBRIUM ITERATION    10

   MAX. PENETRATION ERROR 176.446E-15   AT NODE BATTERY-1.3581 OF CONTACT PAIR 
   (ASSEMBLY_BATTERY-1_BATTOP,ASSEMBLY_CF-2_CFBOT)
   MAX. CONTACT FORCE ERROR -195.561E-12   AT NODE BATTERY-1.452 OF CONTACT 
   PAIR (ASSEMBLY_BATTERY-1_BATBOT,ASSEMBLY_CF-1_CFTOP)
          THE CONTACT CONSTRAINTS HAVE CONVERGED.

 AVERAGE FORCE                      0.200       TIME AVG. FORCE       0.200    
 LARGEST RESIDUAL FORCE            -1.143E-06   AT NODE       1342   DOF  2
   INSTANCE: CF-2                                                                            
 LARGEST INCREMENT OF DISP.        -0.247       AT NODE        512   DOF  3
   INSTANCE: BATTERY-1                                                                       
 LARGEST CORRECTION TO DISP.        3.696E-03   AT NODE          9   DOF  1
   INSTANCE: POLYMER-1                                                                       
          DISP.    CORRECTION TOO LARGE COMPARED TO DISP.    INCREMENT

 AVERAGE MOMENT                     0.152       TIME AVG. MOMENT      0.152    
 LARGEST RESIDUAL MOMENT           -1.195E-05   AT NODE          1   DOF  6
   INSTANCE:                                                                                 
 LARGEST INCREMENT OF ROTATION      8.688E-03   AT NODE        531   DOF  5
   INSTANCE: CF-2                                                                            
 LARGEST CORRECTION TO ROTATION     3.360E-05   AT NODE       1357   DOF  6
   INSTANCE: CF-1                                                                            
          THE MOMENT    EQUILIBRIUM EQUATIONS HAVE CONVERGED BASED ON ALTERNATIVE
          RESIDUAL CRITERION

  NUMBER OF EQUATIONS =     31356     NUMBER OF RHS =    1
  NUMBER OF FLOATING PT. OPERATIONS =  7.26E+10

     CHECK POINT   START OF SOLVER    

     CHECK POINT  END OF SOLVER       

       ELAPSED USER TIME (SEC)      =   7.8000    
       ELAPSED SYSTEM TIME (SEC)    =   0.0000    
       ELAPSED TOTAL CPU TIME (SEC) =   7.8000    
       ELAPSED WALLCLOCK TIME (SEC) =          8
 

 ***WARNING: SOLVER PROBLEM. NUMERICAL SINGULARITY WHEN PROCESSING NODE 
             ASSEMBLY.1 D.O.F. 6 RATIO = 12.4359E+09 .

               CONVERGENCE CHECKS FOR EQUILIBRIUM ITERATION    11

   MAX. PENETRATION ERROR -265.028E-15   AT NODE BATTERY-1.238 OF CONTACT PAIR 
   (ASSEMBLY_BATTERY-1_BATBOT,ASSEMBLY_CF-1_CFTOP)
   MAX. CONTACT FORCE ERROR -365.500E-12   AT NODE BATTERY-1.238 OF CONTACT 
   PAIR (ASSEMBLY_BATTERY-1_BATBOT,ASSEMBLY_CF-1_CFTOP)
          THE CONTACT CONSTRAINTS HAVE CONVERGED.

 AVERAGE FORCE                      0.200       TIME AVG. FORCE       0.200    
 LARGEST RESIDUAL FORCE             1.005E-06   AT NODE       1342   DOF  2
   INSTANCE: CF-2                                                                            
 LARGEST INCREMENT OF DISP.        -0.247       AT NODE        512   DOF  3
   INSTANCE: BATTERY-1                                                                       
 LARGEST CORRECTION TO DISP.       -3.248E-03   AT NODE          9   DOF  1
   INSTANCE: POLYMER-1                                                                       
          DISP.    CORRECTION TOO LARGE COMPARED TO DISP.    INCREMENT

 AVERAGE MOMENT                     0.152       TIME AVG. MOMENT      0.152    
 LARGEST RESIDUAL MOMENT            1.049E-05   AT NODE          1   DOF  6
   INSTANCE:                                                                                 
 LARGEST INCREMENT OF ROTATION      8.688E-03   AT NODE        531   DOF  5
   INSTANCE: CF-2                                                                            
 LARGEST CORRECTION TO ROTATION    -2.953E-05   AT NODE       1357   DOF  6
   INSTANCE: CF-1                                                                            
          THE MOMENT    EQUILIBRIUM EQUATIONS HAVE CONVERGED BASED ON ALTERNATIVE
          RESIDUAL CRITERION

  NUMBER OF EQUATIONS =     31356     NUMBER OF RHS =    1
  NUMBER OF FLOATING PT. OPERATIONS =  7.26E+10

     CHECK POINT   START OF SOLVER    

     CHECK POINT  END OF SOLVER       

       ELAPSED USER TIME (SEC)      =   7.7000    
       ELAPSED SYSTEM TIME (SEC)    =  0.10000    
       ELAPSED TOTAL CPU TIME (SEC) =   7.8000    
       ELAPSED WALLCLOCK TIME (SEC) =          8
 

 ***WARNING: SOLVER PROBLEM. NUMERICAL SINGULARITY WHEN PROCESSING NODE 
             ASSEMBLY.1 D.O.F. 6 RATIO = 12.4339E+09 .

               CONVERGENCE CHECKS FOR EQUILIBRIUM ITERATION    12

   MAX. PENETRATION ERROR 138.585E-15   AT NODE BATTERY-1.3581 OF CONTACT PAIR 
   (ASSEMBLY_BATTERY-1_BATTOP,ASSEMBLY_CF-2_CFBOT)
   MAX. CONTACT FORCE ERROR 165.281E-12   AT NODE BATTERY-1.238 OF CONTACT PAIR 
   (ASSEMBLY_BATTERY-1_BATBOT,ASSEMBLY_CF-1_CFTOP)
          THE CONTACT CONSTRAINTS HAVE CONVERGED.

 AVERAGE FORCE                      0.200       TIME AVG. FORCE       0.200    
 LARGEST RESIDUAL FORCE            -8.832E-07   AT NODE       1342   DOF  2
   INSTANCE: CF-2                                                                            
 LARGEST INCREMENT OF DISP.        -0.247       AT NODE        512   DOF  3
   INSTANCE: BATTERY-1                                                                       
 LARGEST CORRECTION TO DISP.        2.855E-03   AT NODE          9   DOF  1
   INSTANCE: POLYMER-1                                                                       
          DISP.    CORRECTION TOO LARGE COMPARED TO DISP.    INCREMENT

 AVERAGE MOMENT                     0.152       TIME AVG. MOMENT      0.152    
 LARGEST RESIDUAL MOMENT           -9.229E-06   AT NODE          1   DOF  6
   INSTANCE:                                                                                 
 LARGEST INCREMENT OF ROTATION      8.688E-03   AT NODE        531   DOF  5
   INSTANCE: CF-2                                                                            
 LARGEST CORRECTION TO ROTATION     2.595E-05   AT NODE       1357   DOF  6
   INSTANCE: CF-1                                                                            
          THE MOMENT    EQUILIBRIUM EQUATIONS HAVE CONVERGED BASED ON ALTERNATIVE
          RESIDUAL CRITERION

  NUMBER OF EQUATIONS =     31356     NUMBER OF RHS =    1
  NUMBER OF FLOATING PT. OPERATIONS =  7.26E+10

     CHECK POINT   START OF SOLVER    

     CHECK POINT  END OF SOLVER       

       ELAPSED USER TIME (SEC)      =   7.9000    
       ELAPSED SYSTEM TIME (SEC)    =   0.0000    
       ELAPSED TOTAL CPU TIME (SEC) =   7.9000    
       ELAPSED WALLCLOCK TIME (SEC) =          8
 

 ***WARNING: SOLVER PROBLEM. NUMERICAL SINGULARITY WHEN PROCESSING NODE 
             ASSEMBLY.1 D.O.F. 6 RATIO = 12.4356E+09 .

               CONVERGENCE CHECKS FOR EQUILIBRIUM ITERATION    13

   MAX. PENETRATION ERROR -192.665E-15   AT NODE BATTERY-1.238 OF CONTACT PAIR 
   (ASSEMBLY_BATTERY-1_BATBOT,ASSEMBLY_CF-1_CFTOP)
   MAX. CONTACT FORCE ERROR -265.704E-12   AT NODE BATTERY-1.238 OF CONTACT 
   PAIR (ASSEMBLY_BATTERY-1_BATBOT,ASSEMBLY_CF-1_CFTOP)
          THE CONTACT CONSTRAINTS HAVE CONVERGED.

 AVERAGE FORCE                      0.200       TIME AVG. FORCE       0.200    
 LARGEST RESIDUAL FORCE             7.762E-07   AT NODE       1342   DOF  2
   INSTANCE: CF-2                                                                            
 LARGEST INCREMENT OF DISP.        -0.247       AT NODE        512   DOF  3
   INSTANCE: BATTERY-1                                                                       
 LARGEST CORRECTION TO DISP.       -2.509E-03   AT NODE          9   DOF  1
   INSTANCE: POLYMER-1                                                                       
 ESTIMATE OF DISP.    CORRECTION    2.205E-03
 FORCE     EQUILIB. ACCEPTED BASED ON SMALL RESIDUAL AND ESTIMATED CORRECTION

 AVERAGE MOMENT                     0.152       TIME AVG. MOMENT      0.152    
 LARGEST RESIDUAL MOMENT            8.104E-06   AT NODE          1   DOF  6
   INSTANCE:                                                                                 
 LARGEST INCREMENT OF ROTATION      8.688E-03   AT NODE        531   DOF  5
   INSTANCE: CF-2                                                                            
 LARGEST CORRECTION TO ROTATION    -2.281E-05   AT NODE       1357   DOF  6
   INSTANCE: CF-1                                                                            
          THE MOMENT    EQUILIBRIUM EQUATIONS HAVE CONVERGED BASED ON ALTERNATIVE
          RESIDUAL CRITERION

 ITERATION SUMMARY FOR THE INCREMENT:  32 TOTAL ITERATIONS, OF WHICH
  19 ARE SEVERE DISCONTINUITY ITERATIONS AND 13 ARE EQUILIBRIUM ITERATIONS.

 TIME INCREMENT COMPLETED   1.00    ,  FRACTION OF STEP COMPLETED   1.00    
 STEP TIME COMPLETED        1.00    ,  TOTAL TIME COMPLETED         1.00    


          THE ANALYSIS HAS BEEN COMPLETED



     ANALYSIS SUMMARY:
     TOTAL OF          1  INCREMENTS
                       0  CUTBACKS IN AUTOMATIC INCREMENTATION
                      32  ITERATIONS INCLUDING CONTACT ITERATIONS IF PRESENT
                      32  PASSES THROUGH THE EQUATION SOLVER OF WHICH 
                      32  INVOLVE MATRIX DECOMPOSITION, INCLUDING
                       0  DECOMPOSITION(S) OF THE MASS MATRIX
                       1  REORDERING OF EQUATIONS TO MINIMIZE WAVEFRONT
                       0  ADDITIONAL RESIDUAL EVALUATIONS FOR LINE SEARCHES
                       0  ADDITIONAL OPERATOR EVALUATIONS FOR LINE SEARCHES
                       0  WARNING MESSAGES DURING USER INPUT PROCESSING
                      32  WARNING MESSAGES DURING ANALYSIS
                      32  ANALYSIS WARNINGS ARE NUMERICAL PROBLEM MESSAGES
                       0  ANALYSIS WARNINGS ARE NEGATIVE EIGENVALUE MESSAGES
                       0  ERROR MESSAGES



     JOB TIME SUMMARY
       USER TIME (SEC)      =   369.50    
       SYSTEM TIME (SEC)    =   4.2000    
       TOTAL CPU TIME (SEC) =   373.70    
       WALLCLOCK TIME (SEC) =        379
