 Abaqus/Standard 3DEXPERIENCE R2019x                  DATE 27-May-2019 TIME 19:06:45
 SUMMARY OF JOB INFORMATION:
 STEP  INC ATT SEVERE EQUIL TOTAL  TOTAL      STEP       INC OF       DOF    IF
               DISCON ITERS ITERS  TIME/    TIME/LPF    TIME/LPF    MONITOR RIKS
               ITERS               FREQ
   1     1   1U   17    16    33  0.000      0.000      1.000     
   1     1   2    18    15    33  0.250      0.250      0.2500    
   1     2   1U    3     3     6  0.250      0.250      0.1875    
   1     2   2U    4     1     5  0.250      0.250      0.04688   
   1     2   3U    2     4     6  0.250      0.250      0.01172   
   1     2   4U    1     4     5  0.250      0.250      0.002930  
   1     2   5U    1     4     5  0.250      0.250      0.0007324 
                          
 THE ANALYSIS HAS NOT BEEN COMPLETED
