*Heading
** Job name: Job-29 Model name: Model-1
** Generated by: Abaqus/CAE 2019
*Preprint, echo=NO, model=NO, history=NO, contact=NO
**
** PARTS
**
*Part, name=Battery
*Node
      1,   79.7516861,    19.255806,           0.
      2,   77.6303635,   20.1344852,           0.
      3,   75.5090408,    19.255806,           0.
      4,   74.6303635,   17.1344852,           0.
      5,   75.5090408,   15.0131645,           0.
      6,   77.6303635,   14.1344852,           0.
      7,   79.7516861,   15.0131645,           0.
      8,   80.6303635,   17.1344852,           0.
      9,   73.2815781,   10.6135712,           0.
     10,   71.1602554,   11.4922514,           0.
     11,   69.0389328,   10.6135712,           0.
     12,   68.1602554,    8.4922514,           0.
     13,   69.0389328,   6.37093067,           0.
     14,   71.1602554,   5.49225092,           0.
     15,   73.2815781,   6.37093067,           0.
     16,   74.1602554,    8.4922514,           0.
     17,   8.12132072,   56.9165726,           0.
     18,           6.,   57.7952538,           0.
     19,   3.87867975,   56.9165726,           0.
     20,           3.,   54.7952538,           0.
** ... 3958 like lines cut
*Element, type=C3D8R
   1,  151,  150,  267,  268, 1477, 1476, 1593, 1594
   2,  154,  153,  191,  271, 1480, 1479, 1517, 1597
   3,    7,    6,  278,  173, 1333, 1332, 1604, 1499
   4,  170,   10,  171,  274, 1496, 1336, 1497, 1600
   5, 1198, 1197,  282,  160, 2524, 2523, 1608, 1486
   6,    5,    4,  282,  163, 1331, 1330, 1608, 1489
   7,  377,  262,  261,  376, 1703, 1588, 1587, 1702
   8,  206,  261,  144,  143, 1532, 1587, 1470, 1469
   9,  119,  253,  287,  120, 1445, 1579, 1613, 1446
  10,  273,  165,   18,   17, 1599, 1491, 1344, 1343
  11,  453,  446,  337,  361, 1779, 1772, 1663, 1687
  12,  241,  104,  103,  194, 1567, 1430, 1429, 1520
  13,  237,  101,  100,  195, 1563, 1427, 1426, 1521
  14,   97,  295,  238,   98, 1423, 1621, 1564, 1424
  15,  329,   91,   90,  328, 1655, 1417, 1416, 1654
  16,  277,   19,   18,  166, 1603, 1345, 1344, 1492
  17,   86,  168,   20,   87, 1412, 1494, 1346, 1413
  18,  221,   65,   64,  220, 1547, 1391, 1390, 1546
  19,   74,  289,  205,   75, 1400, 1615, 1531, 1401
  20,   71,  290,  222,   72, 1397, 1616, 1548, 1398
** ... 2482 like lines cut
*Nset, nset=Batset, generate
    1,  3978,     1
*Elset, elset=Batset, generate
    1,  2502,     1
*Elset, elset=_BatTop_S2, internal, generate
 1252,  2502,     1
*Surface, type=ELEMENT, name=BatTop
_BatTop_S2, S2
*Elset, elset=_BatBot_S1, internal, generate
    1,  1251,     1
*Surface, type=ELEMENT, name=BatBot
_BatBot_S1, S1
*Elset, elset=_Battery-rivet-0_S5, internal
   23,  176,  179, 1274, 1427, 1430
*Elset, elset=_Battery-rivet-0_S3, internal
   40,  100,  164, 1291, 1351, 1415
*Elset, elset=_Battery-rivet-0_S6, internal
  106,  126, 1357, 1377
*Elset, elset=_Battery-rivet-0_S4, internal
  175,  177,  181,  182, 1426, 1428, 1432, 1433
*Surface, type=ELEMENT, name=Battery-rivet-0
_Battery-rivet-0_S5, S5
_Battery-rivet-0_S3, S3
_Battery-rivet-0_S6, S6
_Battery-rivet-0_S4, S4
*Elset, elset=_Battery-rivet-1_S5, internal
   10, 1261
*Elset, elset=_Battery-rivet-1_S4, internal
   16,   84,  145,  155, 1267, 1335, 1396, 1406
*Elset, elset=_Battery-rivet-1_S3, internal
   41, 1292
*Elset, elset=_Battery-rivet-1_S6, internal
   82,   85, 1333, 1336
*Surface, type=ELEMENT, name=Battery-rivet-1
_Battery-rivet-1_S5, S5
_Battery-rivet-1_S4, S4
_Battery-rivet-1_S6, S6
_Battery-rivet-1_S3, S3
*Elset, elset=_Battery-rivet-2_S6, internal
   35,   51, 1286, 1302
*Elset, elset=_Battery-rivet-2_S4, internal
   48,  151,  153,  154,  165, 1299, 1402, 1404, 1405, 1416
*Elset, elset=_Battery-rivet-2_S3, internal
  162, 1413
*Surface, type=ELEMENT, name=Battery-rivet-2
_Battery-rivet-2_S6, S6
_Battery-rivet-2_S4, S4
_Battery-rivet-2_S3, S3
*Elset, elset=_Battery-rivet-3_S3, internal
    3,    6, 1254, 1257
*Elset, elset=_Battery-rivet-3_S4, internal
  134,  148,  150,  163, 1385, 1399, 1401, 1414
*Elset, elset=_Battery-rivet-3_S5, internal
  146,  168, 1397, 1419
*Surface, type=ELEMENT, name=Battery-rivet-3
_Battery-rivet-3_S3, S3
_Battery-rivet-3_S4, S4
_Battery-rivet-3_S5, S5
*Orientation, name=Ori-1
1., 0., 0., 0., 1., 0.
3, 0.
** Section: BatOrtho
*Solid Section, elset=Batset, orientation=Ori-1, material=BatOrtho
,
*End Part
**  
*Part, name=CF
*Node
      1,         52.5,           0.,           0.
      2,         52.5,         110.,           0.
      3,           0.,         110.,           0.
      4,           0.,           0.,           0.
      5,         57.5,           0.,           0.
      6,         57.5,         110.,           0.
      7,         110.,           0.,           0.
      8,         110.,         110.,           0.
      9,         52.5,   2.97297287,           0.
     10,         52.5,   5.94594574,           0.
     11,         52.5,   8.91891861,           0.
     12,         52.5,   11.8918915,           0.
     13,         52.5,   14.8648653,           0.
     14,         52.5,   17.8378372,           0.
     15,         52.5,   20.8108101,           0.
     16,         52.5,    23.783783,           0.
     17,         52.5,   26.7567558,           0.
     18,         52.5,   29.7297306,           0.
     19,         52.5,   32.7027016,           0.
     20,         52.5,   35.6756744,           0.
** ... 1462 like lines cut
*Element, type=S4R
  1,   1,   9, 223, 114
  2,   9,  10, 224, 223
  3,  10,  11, 225, 224
  4,  11,  12, 226, 225
  5,  12,  13, 227, 226
  6,  13,  14, 228, 227
  7,  14,  15, 229, 228
  8,  15,  16, 230, 229
  9,  16,  17, 231, 230
 10,  17,  18, 232, 231
 11,  18,  19, 233, 232
 12,  19,  20, 234, 233
 13,  20,  21, 235, 234
 14,  21,  22, 236, 235
 15,  22,  23, 237, 236
 16,  23,  24, 238, 237
 17,  24,  25, 239, 238
 18,  25,  26, 240, 239
 19,  26,  27, 241, 240
 20,  27,  28, 242, 241
** ... 1386 like lines cut
*Nset, nset=CF_set, generate
    1,  1482,     1
*Elset, elset=CF_set, generate
    1,  1406,     1
*Elset, elset=_CFtop_SPOS, internal, generate
    1,  1406,     1
*Surface, type=ELEMENT, name=CFtop
_CFtop_SPOS, SPOS
*Elset, elset=_CFbot_SNEG, internal, generate
    1,  1406,     1
*Surface, type=ELEMENT, name=CFbot
_CFbot_SNEG, SNEG
** Section: CF_sec
*Shell Section, elset=CF_set, composite
0.2, 3, CF_material, 0.
0.2, 3, CF_material, 90.
0.2, 3, CF_material, 90.
0.2, 3, CF_material, 0.
*End Part
**  
*Part, name=Polymer
*Node
      1,   84.1602554,   18.4922504,           0.
      2,   84.1602554,   18.4922504,           5.
      3,   63.1149864,   36.3962364,           0.
      4,   63.1149864,   36.3962364,           5.
      5,          10.,         100.,           0.
      6,          10.,          10.,           0.
      7,         100.,          10.,           0.
      8,         100.,         100.,           0.
      9,         110.,           0.,           0.
     10,           0.,           0.,           0.
     11,           0.,         110.,           0.
     12,         110.,         110.,           0.
     13,          10.,          10.,           5.
     14,          10.,         100.,           5.
     15,         100.,         100.,           5.
     16,         100.,          10.,           5.
     17,           0.,         110.,           5.
     18,           0.,           0.,           5.
     19,         110.,           0.,           5.
     20,         110.,         110.,           5.
** ... 2146 like lines cut
*Element, type=C3D8R
1,  626,  625, 1749,  619,   31,   30,  617,    1
2,  622,  621, 1749,  623,   27,   26,  617,   28
3,  620,  619, 1749,  621,   25,    1,  617,   26
4, 1749,  625,  624,  623,  617,   30,   29,   28
5,   32,   33,  618,    2,  626,  625, 1749,  619
6,   36,   37,  618,   35,  622,  621, 1749,  623
7,   38,    2,  618,   37,  620,  619, 1749,  621
8,  618,   33,   34,   35, 1749,  625,  624,  623
 9, 1758,  662,  661, 1752,  635,   47,   46,  629
10,  662, 1758, 1751,  663,   47,  635,  628,   48
11, 1752, 1757, 1751, 1758,  629,  634,  628,  635
12, 1754, 1761, 1756, 1760,  631,  638,  633,  637
13, 1755, 1756, 1761, 1762,  632,  633,  638,  639
14, 1750, 1755,  654,  653,  627,  632,   39,    3
15, 1750,  653,  664, 1757,  627,    3,   49,  634
16,  660,  659, 1753, 1759,   45,   44,  630,  636
17, 1753,  659,  658, 1760,  630,   44,   43,  637
18,  661,  660, 1759, 1752,   46,   45,  636,  629
19, 1760,  658,  657, 1754,  637,   43,   42,  631
20,  657,  656, 1761, 1754,   42,   41,  638,  631
** ... 1112 like lines cut
*Nset, nset=PolySet
    5,    6,    7,    8,    9,   10,   11,   12,   13,   14,   15,   16,   17,   18,   19,   20
   61,   62,   63,   64,   65,   66,   67,   68,   69,   70,   71,   72,   73,   74,   75,   76
   77,   78,   79,   80,   81,   82,   83,   84,   85,   86,   87,   88,   89,   90,   91,   92
   93,   94,   95,   96,   97,   98,   99,  100,  101,  102,  103,  104,  105,  106,  107,  108
  109,  110,  111,  112,  113,  114,  115,  116,  117,  118,  119,  120,  121,  122,  123,  124
  125,  126,  127,  128,  129,  130,  131,  132,  133,  134,  135,  136,  137,  138,  139,  140
  141,  142,  143,  144,  145,  146,  147,  148,  149,  150,  151,  152,  153,  154,  155,  156
  157,  158,  159,  160,  161,  162,  163,  164,  165,  166,  167,  168,  169,  170,  171,  172
  173,  174,  175,  176,  177,  178,  179,  180,  181,  182,  183,  184,  185,  186,  187,  188
  189,  190,  191,  192,  193,  194,  195,  196,  197,  198,  199,  200,  201,  202,  203,  204
  205,  206,  207,  208,  209,  210,  211,  212,  213,  214,  215,  216,  217,  218,  219,  220
  221,  222,  223,  224,  225,  226,  227,  228,  229,  230,  231,  232,  233,  234,  235,  236
  237,  238,  239,  240,  241,  242,  243,  244,  245,  246,  247,  248,  249,  250,  251,  252
  253,  254,  255,  256,  257,  258,  259,  260,  261,  262,  263,  264,  265,  266,  267,  268
  269,  270,  271,  272,  273,  274,  275,  276,  277,  278,  279,  280,  281,  282,  283,  284
  285,  286,  287,  288,  289,  290,  291,  292,  293,  294,  295,  296,  297,  298,  299,  300
  301,  302,  303,  304,  305,  306,  307,  308,  309,  310,  311,  312,  313,  314,  315,  316
  317,  318,  319,  320,  321,  322,  323,  324,  325,  326,  327,  328,  329,  330,  331,  332
  333,  334,  335,  336,  337,  338,  339,  340,  341,  342,  343,  344,  345,  346,  347,  348
  349,  350,  351,  352,  353,  354,  355,  356,  357,  358,  359,  360,  361,  362,  363,  364
** ... 106 like lines cut
*Elset, elset=PolySet, generate
   45,  1116,     1
*Nset, nset=_PickedSet12, internal
    3,    4,   39,   40,   41,   42,   43,   44,   45,   46,   47,   48,   49,   50,   51,   52
   53,   54,   55,   56,   57,   58,   59,   60,  627,  628,  629,  630,  631,  632,  633,  634
  635,  636,  637,  638,  639,  640,  641,  642,  643,  644,  645,  646,  647,  648,  649,  650
  651,  652,  653,  654,  655,  656,  657,  658,  659,  660,  661,  662,  663,  664, 1750, 1751
 1752, 1753, 1754, 1755, 1756, 1757, 1758, 1759, 1760, 1761, 1762
*Elset, elset=_PickedSet12, internal, generate
  9,  44,   1
*Nset, nset=_PickedSet17, internal
   21,   22,  589,  590,  591,  592,  593,  594,  595,  596,  597,  598,  599,  600,  601,  602
 1729, 1730, 1731, 1732, 1733, 1734, 1735, 1736, 1737, 1738, 2165
*Elset, elset=_PickedSet17, internal, generate
 1117,  1124,     1
*Nset, nset=_PickedSet22, internal
    1,    2,   25,   26,   27,   28,   29,   30,   31,   32,   33,   34,   35,   36,   37,   38
  617,  618,  619,  620,  621,  622,  623,  624,  625,  626, 1749
*Elset, elset=_PickedSet22, internal, generate
 1,  8,  1
*Nset, nset=_PickedSet27, internal
   23,   24,  603,  604,  605,  606,  607,  608,  609,  610,  611,  612,  613,  614,  615,  616
 1739, 1740, 1741, 1742, 1743, 1744, 1745, 1746, 1747, 1748, 2166
*Elset, elset=_PickedSet27, internal, generate
 1125,  1132,     1
*Elset, elset=_PolyTop_S2, internal, generate
  581,  1116,     1
*Surface, type=ELEMENT, name=PolyTop
_PolyTop_S2, S2
*Elset, elset=_PolyBot_S1, internal, generate
  45,  580,    1
*Surface, type=ELEMENT, name=PolyBot
_PolyBot_S1, S1
*Elset, elset=_Polymer-rivet-0_S4, internal
  9, 15, 17, 19, 21, 25, 27, 33, 35, 37, 39, 43
*Elset, elset=_Polymer-rivet-0_S6, internal
 10, 28
*Elset, elset=_Polymer-rivet-0_S5, internal
 14, 24, 32, 42
*Elset, elset=_Polymer-rivet-0_S3, internal
 16, 18, 20, 34, 36, 38
*Surface, type=ELEMENT, name=Polymer-rivet-0
_Polymer-rivet-0_S4, S4
_Polymer-rivet-0_S6, S6
_Polymer-rivet-0_S5, S5
_Polymer-rivet-0_S3, S3
*Elset, elset=_Polymer-rivet-top-0_S1, internal, generate
 27,  44,   1
*Surface, type=ELEMENT, name=Polymer-rivet-top-0
_Polymer-rivet-top-0_S1, S1
*Elset, elset=_Polymer-rivet-bot-0_S2, internal, generate
  9,  26,   1
*Surface, type=ELEMENT, name=Polymer-rivet-bot-0
_Polymer-rivet-bot-0_S2, S2
*Elset, elset=_Polymer-rivet-1_S4, internal
 1117, 1119, 1120, 1121, 1123, 1124
*Elset, elset=_Polymer-rivet-1_S5, internal
 1117, 1119, 1120, 1121, 1123, 1124
*Elset, elset=_Polymer-rivet-1_S3, internal
 1118, 1122
*Elset, elset=_Polymer-rivet-1_S6, internal
 1118, 1122
*Surface, type=ELEMENT, name=Polymer-rivet-1
_Polymer-rivet-1_S4, S4
_Polymer-rivet-1_S5, S5
_Polymer-rivet-1_S6, S6
_Polymer-rivet-1_S3, S3
*Elset, elset=_Polymer-rivet-top-1_S1, internal, generate
 1121,  1124,     1
*Surface, type=ELEMENT, name=Polymer-rivet-top-1
_Polymer-rivet-top-1_S1, S1
*Elset, elset=_Polymer-rivet-bot-1_S2, internal, generate
 1117,  1120,     1
*Surface, type=ELEMENT, name=Polymer-rivet-bot-1
_Polymer-rivet-bot-1_S2, S2
*Elset, elset=_Polymer-rivet-2_S3, internal
 1, 2, 3, 5, 6, 7
*Elset, elset=_Polymer-rivet-2_S6, internal
 1, 2, 3, 5, 6, 7
*Elset, elset=_Polymer-rivet-2_S4, internal
 4, 8
*Elset, elset=_Polymer-rivet-2_S5, internal
 4, 8
*Surface, type=ELEMENT, name=Polymer-rivet-2
_Polymer-rivet-2_S3, S3
_Polymer-rivet-2_S6, S6
_Polymer-rivet-2_S4, S4
_Polymer-rivet-2_S5, S5
*Elset, elset=_Polymer-rivet-top-2_S1, internal, generate
 5,  8,  1
*Surface, type=ELEMENT, name=Polymer-rivet-top-2
_Polymer-rivet-top-2_S1, S1
*Elset, elset=_Polymer-rivet-bot-2_S2, internal, generate
 1,  4,  1
*Surface, type=ELEMENT, name=Polymer-rivet-bot-2
_Polymer-rivet-bot-2_S2, S2
*Elset, elset=_Polymer-rivet-3_S4, internal
 1125, 1128, 1129, 1132
*Elset, elset=_Polymer-rivet-3_S5, internal
 1125, 1128, 1129, 1132
*Elset, elset=_Polymer-rivet-3_S3, internal
 1126, 1127, 1130, 1131
*Elset, elset=_Polymer-rivet-3_S6, internal
 1126, 1127, 1130, 1131
*Surface, type=ELEMENT, name=Polymer-rivet-3
_Polymer-rivet-3_S4, S4
_Polymer-rivet-3_S5, S5
_Polymer-rivet-3_S6, S6
_Polymer-rivet-3_S3, S3
*Elset, elset=_Polymer-rivet-top-3_S1, internal, generate
 1129,  1132,     1
*Surface, type=ELEMENT, name=Polymer-rivet-top-3
_Polymer-rivet-top-3_S1, S1
*Elset, elset=_Polymer-rivet-bot-3_S2, internal, generate
 1125,  1128,     1
*Surface, type=ELEMENT, name=Polymer-rivet-bot-3
_Polymer-rivet-bot-3_S2, S2
** Section: PolySec
*Solid Section, elset=_PickedSet22, material=Polymer
,
** Section: PolySec
*Solid Section, elset=_PickedSet12, material=Polymer
,
** Section: PolySec
*Solid Section, elset=PolySet, material=Polymer
,
** Section: PolySec
*Solid Section, elset=_PickedSet17, material=Polymer
,
** Section: PolySec
*Solid Section, elset=_PickedSet27, material=Polymer
,
*End Part
**  
**
** ASSEMBLY
**
*Assembly, name=Assembly
**  
*Instance, name=Polymer-1, part=Polymer
*End Instance
**  
*Instance, name=Battery-1, part=Battery
         10.,          10.,           0.
*End Instance
**  
*Instance, name=CF-1, part=CF
          0.,           0.,         -0.4
*End Instance
**  
*Instance, name=CF-2, part=CF
          0.,           0.,          5.4
*End Instance
**  
*Node
      1,          55.,          55.,    5.4000001
*Nset, nset=VerticalSupport, instance=CF-1
   3,   4,   7,   8,  62,  63,  64,  65,  66,  67,  68,  69,  70,  71,  72,  73
  74,  75,  76,  77,  78,  79,  80,  81,  82,  83,  84,  85,  86,  87,  88,  89
  90,  91,  92,  93,  94,  95,  96,  97, 170, 171, 172, 173, 174, 175, 176, 177
 178, 179, 180, 181, 182, 183, 184, 185, 186, 187, 188, 189, 190, 191, 192, 193
 194, 195, 196, 197, 198, 199, 200, 201, 202, 203, 204, 205
*Elset, elset=VerticalSupport, instance=CF-1
  630,  631,  632,  633,  634,  635,  636,  637,  638,  639,  640,  641,  642,  643,  644,  645
  646,  647,  648,  649,  650,  651,  652,  653,  654,  655,  656,  657,  658,  659,  660,  661
  662,  663,  664,  665,  666, 1370, 1371, 1372, 1373, 1374, 1375, 1376, 1377, 1378, 1379, 1380
 1381, 1382, 1383, 1384, 1385, 1386, 1387, 1388, 1389, 1390, 1391, 1392, 1393, 1394, 1395, 1396
 1397, 1398, 1399, 1400, 1401, 1402, 1403, 1404, 1405, 1406
*Nset, nset=XDirSupport, instance=CF-1
 3,
*Nset, nset=YDirSupport, instance=CF-1
 7,
*Nset, nset=rigid_loading_set, instance=CF-2
   1,   2,   5,   6,   9,  10,  11,  12,  13,  14,  15,  16,  17,  18,  19,  20
  21,  22,  23,  24,  25,  26,  27,  28,  29,  30,  31,  32,  33,  34,  35,  36
  37,  38,  39,  40,  41,  42,  43,  44, 115, 116, 117, 118, 119, 120, 121, 122
 123, 124, 125, 126, 127, 128, 129, 130, 131, 132, 133, 134, 135, 136, 137, 138
 139, 140, 141, 142, 143, 144, 145, 146, 147, 148, 149, 150, 151, 152, 835, 836
 837, 838, 839, 840, 841, 842, 843, 844, 845, 846, 847, 848, 849, 850, 851, 852
 853, 854, 855, 856, 857, 858, 859, 860, 861, 862, 863, 864, 865, 866, 867, 868
 869, 870
*Elset, elset=rigid_loading_set, instance=CF-2, generate
 667,  740,    1
*Nset, nset=_PickedSet14, internal
 1,
*Elset, elset=__PickedSurf15_SPOS, internal, instance=CF-2, generate
 667,  740,    1
*Surface, type=ELEMENT, name=_PickedSurf15, internal
__PickedSurf15_SPOS, SPOS
** Constraint: BatPoly-0
*Tie, name=BatPoly-0, adjust=no, position tolerance=1.
Battery-1.Battery-rivet-0, Polymer-1.Polymer-rivet-0
** Constraint: BatPoly-1
*Tie, name=BatPoly-1, adjust=no, position tolerance=1.
Battery-1.Battery-rivet-1, Polymer-1.Polymer-rivet-1
** Constraint: BatPoly-2
*Tie, name=BatPoly-2, adjust=no, position tolerance=1.
Battery-1.Battery-rivet-2, Polymer-1.Polymer-rivet-2
** Constraint: BatPoly-3
*Tie, name=BatPoly-3, adjust=no, position tolerance=1.
Battery-1.Battery-rivet-3, Polymer-1.Polymer-rivet-3
** Constraint: CF1Poly
*Tie, name=CF1Poly, adjust=no, position tolerance=1.
Polymer-1.PolyBot, CF-1.CFtop
** Constraint: CF1Poly-Rivet-0
*Tie, name=CF1Poly-Rivet-0, adjust=no, position tolerance=1.
Polymer-1.Polymer-rivet-bot-0, CF-1.CFtop
** Constraint: CF1Poly-Rivet-1
*Tie, name=CF1Poly-Rivet-1, adjust=no, position tolerance=1.
Polymer-1.Polymer-rivet-bot-1, CF-1.CFtop
** Constraint: CF1Poly-Rivet-2
*Tie, name=CF1Poly-Rivet-2, adjust=no, position tolerance=1.
Polymer-1.Polymer-rivet-bot-2, CF-1.CFtop
** Constraint: CF1Poly-Rivet-3
*Tie, name=CF1Poly-Rivet-3, adjust=no, position tolerance=1.
Polymer-1.Polymer-rivet-bot-3, CF-1.CFtop
** Constraint: CF2Poly
*Tie, name=CF2Poly, adjust=no, position tolerance=1.
Polymer-1.PolyTop, CF-2.CFbot
** Constraint: CF2Poly-Rivet-0
*Tie, name=CF2Poly-Rivet-0, adjust=no, position tolerance=1.
Polymer-1.Polymer-rivet-top-0, CF-2.CFbot
** Constraint: CF2Poly-Rivet-1
*Tie, name=CF2Poly-Rivet-1, adjust=no, position tolerance=1.
Polymer-1.Polymer-rivet-top-1, CF-2.CFbot
** Constraint: CF2Poly-Rivet-2
*Tie, name=CF2Poly-Rivet-2, adjust=no, position tolerance=1.
Polymer-1.Polymer-rivet-top-2, CF-2.CFbot
** Constraint: CF2Poly-Rivet-3
*Tie, name=CF2Poly-Rivet-3, adjust=no, position tolerance=1.
Polymer-1.Polymer-rivet-top-3, CF-2.CFbot
** Constraint: LoadingRigidBody
*Rigid Body, ref node=_PickedSet14, tie nset=rigid_loading_set
*End Assembly
** 
** MATERIALS
** 
*Material, name=BatOrtho
*Elastic, type=ENGINEERING CONSTANTS
1090., 109., 500., 0.15, 0.15, 0.15, 474., 474.
 474.,
*Material, name=CF_material
*Elastic, type=ENGINEERING CONSTANTS
30420.,  4023.,  4023.,   0.29,   0.29, 0.3928,  2081.,  2081.
  1440.,
*Material, name=Polymer
*Elastic
500., 0.3
** 
** INTERACTION PROPERTIES
** 
*Surface Interaction, name=NormCont
1.,
*Friction, slip tolerance=0.005
 0.3,
*Surface Behavior, pressure-overclosure=HARD
** 
** INTERACTIONS
** 
** Interaction: CF1Bat
*Contact Pair, interaction=NormCont, type=SURFACE TO SURFACE
Battery-1.BatBot, CF-1.CFtop
** Interaction: CF2Bat
*Contact Pair, interaction=NormCont, type=SURFACE TO SURFACE
Battery-1.BatTop, CF-2.CFbot
** ----------------------------------------------------------------
** 
** STEP: Loading
** 
*Step, name=Loading, nlgeom=NO
*Static
1., 1., 1e-05, 1.
** 
** BOUNDARY CONDITIONS
** 
** Name: VerticalSupport Type: Displacement/Rotation
*Boundary
VerticalSupport, 3, 3
** Name: XDirSupport Type: Displacement/Rotation
*Boundary
XDirSupport, 1, 1
** Name: YDirSupport Type: Displacement/Rotation
*Boundary
YDirSupport, 2, 2
** 
** LOADS
** 
** Name: Load-1   Type: Pressure
*Dsload
_PickedSurf15, P, 0.181818
** 
** OUTPUT REQUESTS
** 
*Restart, write, frequency=0
** 
** FIELD OUTPUT: F-Output-1
** 
*Output, field
*Node Output
U, UR, UT
*Element Output, directions=YES
EVOL, 
** 
** HISTORY OUTPUT: H-Output-1
** 
*Output, history, variable=PRESELECT
*End Step
