*Heading
** Job name: Job-42 Model name: Model-1
** Generated by: Abaqus/CAE 2019
*Preprint, echo=NO, model=NO, history=NO, contact=NO
**
** PARTS
**
*Part, name=Battery
*Node
      1,   79.9003983,   39.7726479,           0.
      2,   77.7790756,    40.651329,           0.
      3,    75.657753,   39.7726479,           0.
      4,   74.7790756,    37.651329,           0.
      5,    75.657753,   35.5300064,           0.
      6,   77.7790756,    34.651329,           0.
      7,   79.9003983,   35.5300064,           0.
      8,   80.7790756,    37.651329,           0.
      9,   29.4031982,   84.6473236,           0.
     10,   27.3804913,   86.1169052,           0.
     11,   24.8802853,   86.1169052,           0.
     12,   22.8575783,   84.6473236,           0.
     13,   22.0849724,   82.2694855,           0.
     14,   22.8575783,    79.891655,           0.
     15,   24.8802853,   78.4220657,           0.
     16,   27.3804913,   78.4220657,           0.
     17,   29.4031982,    79.891655,           0.
     18,   30.1758041,   82.2694855,           0.
     19,   86.3230667,   10.5790863,           0.
     20,   84.4736404,   12.4285116,           0.
** ... 4090 like lines cut
*Element, type=C3D8R
   1,  249,  136,  135,  195, 1619, 1506, 1505, 1565
   2,  132,  189,  188,  133, 1502, 1559, 1558, 1503
   3,  245,  265,  347,  192, 1615, 1635, 1717, 1562
   4,  313,  286,  188,  189, 1683, 1656, 1558, 1559
   5,  131,  191,  189,  132, 1501, 1561, 1559, 1502
   6,  244,  160,  265,  245, 1614, 1530, 1635, 1615
   7,   31,  160,  244,  264, 1401, 1530, 1614, 1634
   8,  121,  264,  244,  122, 1491, 1634, 1614, 1492
   9,   33,   32,  121,  120, 1403, 1402, 1491, 1490
  10,  177,  107,  106,  238, 1547, 1477, 1476, 1608
  11, 1239,  238,  237, 1240, 2609, 1608, 1607, 2610
  12,  237,  105,  104,  276, 1607, 1475, 1474, 1646
  13,  102,  194,  193,  103, 1472, 1564, 1563, 1473
  14,  287,  374,  284,  235, 1657, 1744, 1654, 1605
  15,   14,  175, 1228,   15, 1384, 1545, 2598, 1385
  16,  288,  300,  216,  215, 1658, 1670, 1586, 1585
  17,   66,  215,  216,   67, 1436, 1585, 1586, 1437
  18,  289,  327,  213,  212, 1659, 1697, 1583, 1582
  19,  419,  418,  323,  322, 1789, 1788, 1693, 1692
  20,  267,  164,    4,    3, 1637, 1534, 1374, 1373
** ... 2568 like lines cut
*Nset, nset=Batset, generate
    1,  4110,     1
*Elset, elset=Batset, generate
    1,  2588,     1
*Elset, elset=_BatTop_S2, internal, generate
 1295,  2588,     1
*Surface, type=ELEMENT, name=BatTop
_BatTop_S2, S2
*Elset, elset=_BatBot_S1, internal, generate
    1,  1294,     1
*Surface, type=ELEMENT, name=BatBot
_BatBot_S1, S1
*Elset, elset=_Battery-rivet-0_S3, internal
    9,  108,  117, 1303, 1402, 1411
*Elset, elset=_Battery-rivet-0_S5, internal
   21,  113, 1315, 1407
*Elset, elset=_Battery-rivet-0_S6, internal
  114, 1408
*Elset, elset=_Battery-rivet-0_S4, internal
  143,  151, 1437, 1445
*Surface, type=ELEMENT, name=Battery-rivet-0
_Battery-rivet-0_S3, S3
_Battery-rivet-0_S5, S5
_Battery-rivet-0_S6, S6
_Battery-rivet-0_S4, S4
*Elset, elset=_Battery-rivet-1_S3, internal
   31,  131,  134, 1325, 1425, 1428
*Elset, elset=_Battery-rivet-1_S4, internal
   33,   59,  138,  168,  175, 1327, 1353, 1432, 1462, 1469
*Elset, elset=_Battery-rivet-1_S5, internal
   57,  139,  172, 1351, 1433, 1466
*Elset, elset=_Battery-rivet-1_S6, internal
  137, 1431
*Surface, type=ELEMENT, name=Battery-rivet-1
_Battery-rivet-1_S3, S3
_Battery-rivet-1_S4, S4
_Battery-rivet-1_S6, S6
_Battery-rivet-1_S5, S5
*Elset, elset=_Battery-rivet-2_S6, internal
   15,   54, 1309, 1348
*Elset, elset=_Battery-rivet-2_S5, internal
   50,   89,  165, 1344, 1383, 1459
*Elset, elset=_Battery-rivet-2_S4, internal
  103,  105,  158, 1397, 1399, 1452
*Elset, elset=_Battery-rivet-2_S3, internal
  145,  266, 1439, 1560
*Surface, type=ELEMENT, name=Battery-rivet-2
_Battery-rivet-2_S6, S6
_Battery-rivet-2_S5, S5
_Battery-rivet-2_S4, S4
_Battery-rivet-2_S3, S3
*Elset, elset=_Battery-rivet-3_S5, internal
   20,  154, 1314, 1448
*Elset, elset=_Battery-rivet-3_S3, internal
   46,   47,  149, 1340, 1341, 1443
*Elset, elset=_Battery-rivet-3_S4, internal
  127,  140,  147, 1421, 1434, 1441
*Surface, type=ELEMENT, name=Battery-rivet-3
_Battery-rivet-3_S5, S5
_Battery-rivet-3_S3, S3
_Battery-rivet-3_S4, S4
*Orientation, name=Ori-1
1., 0., 0., 0., 1., 0.
3, 0.
** Section: BatOrtho
*Solid Section, elset=Batset, orientation=Ori-1, material=BatOrtho
,
*End Part
**  
*Part, name=CF
*Node
      1,         52.5,           0.,           0.
      2,         52.5,         110.,           0.
      3,           0.,         110.,           0.
      4,           0.,           0.,           0.
      5,         57.5,           0.,           0.
      6,         57.5,         110.,           0.
      7,         110.,           0.,           0.
      8,         110.,         110.,           0.
      9,         52.5,   2.97297287,           0.
     10,         52.5,   5.94594574,           0.
     11,         52.5,   8.91891861,           0.
     12,         52.5,   11.8918915,           0.
     13,         52.5,   14.8648653,           0.
     14,         52.5,   17.8378372,           0.
     15,         52.5,   20.8108101,           0.
     16,         52.5,    23.783783,           0.
     17,         52.5,   26.7567558,           0.
     18,         52.5,   29.7297306,           0.
     19,         52.5,   32.7027016,           0.
     20,         52.5,   35.6756744,           0.
** ... 1462 like lines cut
*Element, type=S4R
  1,   1,   9, 223, 114
  2,   9,  10, 224, 223
  3,  10,  11, 225, 224
  4,  11,  12, 226, 225
  5,  12,  13, 227, 226
  6,  13,  14, 228, 227
  7,  14,  15, 229, 228
  8,  15,  16, 230, 229
  9,  16,  17, 231, 230
 10,  17,  18, 232, 231
 11,  18,  19, 233, 232
 12,  19,  20, 234, 233
 13,  20,  21, 235, 234
 14,  21,  22, 236, 235
 15,  22,  23, 237, 236
 16,  23,  24, 238, 237
 17,  24,  25, 239, 238
 18,  25,  26, 240, 239
 19,  26,  27, 241, 240
 20,  27,  28, 242, 241
** ... 1386 like lines cut
*Nset, nset=CF_set, generate
    1,  1482,     1
*Elset, elset=CF_set, generate
    1,  1406,     1
*Elset, elset=_CFtop_SPOS, internal, generate
    1,  1406,     1
*Surface, type=ELEMENT, name=CFtop
_CFtop_SPOS, SPOS
*Elset, elset=_CFbot_SNEG, internal, generate
    1,  1406,     1
*Surface, type=ELEMENT, name=CFbot
_CFbot_SNEG, SNEG
** Section: CF_sec
*Shell Section, elset=CF_set, composite
0.2, 3, CF_material, 0.
0.2, 3, CF_material, 90.
0.2, 3, CF_material, 90.
0.2, 3, CF_material, 0.
*End Part
**  
*Part, name=Polymer
*Node
      1,   40.1758041,   92.2694855,           0.
      2,   40.1758041,   92.2694855,           5.
      3,   75.0054703,          94.,           0.
      4,   75.0054703,          94.,           5.
      5,          10.,         100.,           0.
      6,          10.,          10.,           0.
      7,         100.,          10.,           0.
      8,         100.,         100.,           0.
      9,         110.,           0.,           0.
     10,           0.,           0.,           0.
     11,           0.,         110.,           0.
     12,         110.,         110.,           0.
     13,          10.,          10.,           5.
     14,          10.,         100.,           5.
     15,         100.,         100.,           5.
     16,         100.,          10.,           5.
     17,           0.,         110.,           5.
     18,           0.,           0.,           5.
     19,         110.,           0.,           5.
     20,         110.,         110.,           5.
** ... 2194 like lines cut
*Element, type=C3D8R
 1,  647, 1784, 1789,  648,   30,  622,  627,   31
 2, 1792,  650,  649, 1788,  630,   33,   32,  626
 3, 1783, 1789, 1784, 1785,  621,  627,  622,  623
 4, 1785, 1784, 1790, 1791,  623,  622,  628,  629
 5, 1785, 1791, 1786, 1783,  623,  629,  624,  621
 6, 1787,  641,  650, 1792,  625,    1,   33,  630
 7, 1784,  647,  646, 1790,  622,   30,   29,  628
 8,  641, 1787, 1786,  642,    1,  625,  624,   25
 9, 1791, 1790,  644,  643,  629,  628,   27,   26
10,  643,  642, 1786, 1791,   26,   25,  624,  629
11, 1786, 1787, 1792, 1783,  624,  625,  630,  621
12, 1789, 1788,  649,  648,  627,  626,   32,   31
13, 1788, 1789, 1783, 1792,  626,  627,  621,  630
14, 1790,  646,  645,  644,  628,   29,   28,   27
15,   37,  632,  637,   36,  647, 1784, 1789,  648
16,  640,   34,   35,  636, 1792,  650,  649, 1788
17,  631,  637,  632,  633, 1783, 1789, 1784, 1785
18,  633,  632,  638,  639, 1785, 1784, 1790, 1791
19,  633,  639,  634,  631, 1785, 1791, 1786, 1783
20,  635,    2,   34,  640, 1787,  641,  650, 1792
** ... 1142 like lines cut
*Nset, nset=PolySet
    5,    6,    7,    8,    9,   10,   11,   12,   13,   14,   15,   16,   17,   18,   19,   20
   57,   58,   59,   60,   61,   62,   63,   64,   65,   66,   67,   68,   69,   70,   71,   72
   73,   74,   75,   76,   77,   78,   79,   80,   81,   82,   83,   84,   85,   86,   87,   88
   89,   90,   91,   92,   93,   94,   95,   96,   97,   98,   99,  100,  101,  102,  103,  104
  105,  106,  107,  108,  109,  110,  111,  112,  113,  114,  115,  116,  117,  118,  119,  120
  121,  122,  123,  124,  125,  126,  127,  128,  129,  130,  131,  132,  133,  134,  135,  136
  137,  138,  139,  140,  141,  142,  143,  144,  145,  146,  147,  148,  149,  150,  151,  152
  153,  154,  155,  156,  157,  158,  159,  160,  161,  162,  163,  164,  165,  166,  167,  168
  169,  170,  171,  172,  173,  174,  175,  176,  177,  178,  179,  180,  181,  182,  183,  184
  185,  186,  187,  188,  189,  190,  191,  192,  193,  194,  195,  196,  197,  198,  199,  200
  201,  202,  203,  204,  205,  206,  207,  208,  209,  210,  211,  212,  213,  214,  215,  216
  217,  218,  219,  220,  221,  222,  223,  224,  225,  226,  227,  228,  229,  230,  231,  232
  233,  234,  235,  236,  237,  238,  239,  240,  241,  242,  243,  244,  245,  246,  247,  248
  249,  250,  251,  252,  253,  254,  255,  256,  257,  258,  259,  260,  261,  262,  263,  264
  265,  266,  267,  268,  269,  270,  271,  272,  273,  274,  275,  276,  277,  278,  279,  280
  281,  282,  283,  284,  285,  286,  287,  288,  289,  290,  291,  292,  293,  294,  295,  296
  297,  298,  299,  300,  301,  302,  303,  304,  305,  306,  307,  308,  309,  310,  311,  312
  313,  314,  315,  316,  317,  318,  319,  320,  321,  322,  323,  324,  325,  326,  327,  328
  329,  330,  331,  332,  333,  334,  335,  336,  337,  338,  339,  340,  341,  342,  343,  344
  345,  346,  347,  348,  349,  350,  351,  352,  353,  354,  355,  356,  357,  358,  359,  360
** ... 106 like lines cut
*Elset, elset=PolySet, generate
   37,  1108,     1
*Nset, nset=_PickedSet12, internal
    3,    4,   43,   44,   45,   46,   47,   48,   49,   50,   51,   52,   53,   54,   55,   56
  651,  652,  653,  654,  655,  656,  657,  658,  659,  660, 1793
*Elset, elset=_PickedSet12, internal, generate
 29,  36,   1
*Nset, nset=_PickedSet17, internal
   21,   22,  585,  586,  587,  588,  589,  590,  591,  592,  593,  594,  595,  596,  597,  598
  599,  600,  601,  602,  603,  604,  605,  606, 1725, 1726, 1727, 1728, 1729, 1730, 1731, 1732
 1733, 1734, 1735, 1736, 1737, 1738, 1739, 1740, 1741, 1742, 1743, 1744, 1745, 1746, 1747, 1748
 1749, 1750, 1751, 1752, 1753, 1754, 1755, 1756, 1757, 1758, 1759, 1760, 1761, 1762, 1763, 1764
 1765, 1766, 1767, 1768, 1769, 1770, 1771, 1772, 2196, 2197, 2198, 2199, 2200, 2201, 2202, 2203
 2204, 2205, 2206, 2207, 2208, 2209, 2210, 2211, 2212, 2213
*Elset, elset=_PickedSet17, internal, generate
 1109,  1154,     1
*Nset, nset=_PickedSet22, internal
    1,    2,   25,   26,   27,   28,   29,   30,   31,   32,   33,   34,   35,   36,   37,   38
   39,   40,   41,   42,  621,  622,  623,  624,  625,  626,  627,  628,  629,  630,  631,  632
  633,  634,  635,  636,  637,  638,  639,  640,  641,  642,  643,  644,  645,  646,  647,  648
  649,  650, 1783, 1784, 1785, 1786, 1787, 1788, 1789, 1790, 1791, 1792
*Elset, elset=_PickedSet22, internal, generate
  1,  28,   1
*Nset, nset=_PickedSet27, internal
   23,   24,  607,  608,  609,  610,  611,  612,  613,  614,  615,  616,  617,  618,  619,  620
 1773, 1774, 1775, 1776, 1777, 1778, 1779, 1780, 1781, 1782, 2214
*Elset, elset=_PickedSet27, internal, generate
 1155,  1162,     1
*Elset, elset=_PolyTop_S2, internal, generate
  573,  1108,     1
*Surface, type=ELEMENT, name=PolyTop
_PolyTop_S2, S2
*Elset, elset=_PolyBot_S1, internal, generate
  37,  572,    1
*Surface, type=ELEMENT, name=PolyBot
_PolyBot_S1, S1
*Elset, elset=_Polymer-rivet-0_S4, internal
 29, 32, 33, 36
*Elset, elset=_Polymer-rivet-0_S5, internal
 29, 32, 33, 36
*Elset, elset=_Polymer-rivet-0_S3, internal
 30, 31, 34, 35
*Elset, elset=_Polymer-rivet-0_S6, internal
 30, 31, 34, 35
*Surface, type=ELEMENT, name=Polymer-rivet-0
_Polymer-rivet-0_S4, S4
_Polymer-rivet-0_S5, S5
_Polymer-rivet-0_S6, S6
_Polymer-rivet-0_S3, S3
*Elset, elset=_Polymer-rivet-top-0_S1, internal, generate
 33,  36,   1
*Surface, type=ELEMENT, name=Polymer-rivet-top-0
_Polymer-rivet-top-0_S1, S1
*Elset, elset=_Polymer-rivet-bot-0_S2, internal, generate
 29,  32,   1
*Surface, type=ELEMENT, name=Polymer-rivet-bot-0
_Polymer-rivet-bot-0_S2, S2
*Elset, elset=_Polymer-rivet-1_S6, internal
 1109, 1112, 1119, 1120, 1127, 1132, 1135, 1142, 1143, 1150
*Elset, elset=_Polymer-rivet-1_S3, internal
 1110, 1118, 1124, 1125, 1133, 1141, 1147, 1148
*Elset, elset=_Polymer-rivet-1_S5, internal
 1115, 1122, 1126, 1138, 1145, 1149
*Surface, type=ELEMENT, name=Polymer-rivet-1
_Polymer-rivet-1_S6, S6
_Polymer-rivet-1_S3, S3
_Polymer-rivet-1_S5, S5
*Elset, elset=_Polymer-rivet-top-1_S1, internal, generate
 1132,  1154,     1
*Surface, type=ELEMENT, name=Polymer-rivet-top-1
_Polymer-rivet-top-1_S1, S1
*Elset, elset=_Polymer-rivet-bot-1_S2, internal, generate
 1109,  1131,     1
*Surface, type=ELEMENT, name=Polymer-rivet-bot-1
_Polymer-rivet-bot-1_S2, S2
*Elset, elset=_Polymer-rivet-2_S6, internal, generate
  1,  22,   7
*Elset, elset=_Polymer-rivet-2_S4, internal
  2,  6,  7, 14, 16, 20, 21, 28
*Elset, elset=_Polymer-rivet-2_S5, internal
  9, 12, 14, 23, 26, 28
*Elset, elset=_Polymer-rivet-2_S3, internal
 10, 24
*Surface, type=ELEMENT, name=Polymer-rivet-2
_Polymer-rivet-2_S6, S6
_Polymer-rivet-2_S4, S4
_Polymer-rivet-2_S5, S5
_Polymer-rivet-2_S3, S3
*Elset, elset=_Polymer-rivet-top-2_S1, internal, generate
 15,  28,   1
*Surface, type=ELEMENT, name=Polymer-rivet-top-2
_Polymer-rivet-top-2_S1, S1
*Elset, elset=_Polymer-rivet-bot-2_S2, internal, generate
  1,  14,   1
*Surface, type=ELEMENT, name=Polymer-rivet-bot-2
_Polymer-rivet-bot-2_S2, S2
*Elset, elset=_Polymer-rivet-3_S4, internal
 1155, 1158, 1159, 1162
*Elset, elset=_Polymer-rivet-3_S5, internal
 1155, 1158, 1159, 1162
*Elset, elset=_Polymer-rivet-3_S3, internal
 1156, 1157, 1160, 1161
*Elset, elset=_Polymer-rivet-3_S6, internal
 1156, 1157, 1160, 1161
*Surface, type=ELEMENT, name=Polymer-rivet-3
_Polymer-rivet-3_S4, S4
_Polymer-rivet-3_S5, S5
_Polymer-rivet-3_S6, S6
_Polymer-rivet-3_S3, S3
*Elset, elset=_Polymer-rivet-top-3_S1, internal, generate
 1159,  1162,     1
*Surface, type=ELEMENT, name=Polymer-rivet-top-3
_Polymer-rivet-top-3_S1, S1
*Elset, elset=_Polymer-rivet-bot-3_S2, internal, generate
 1155,  1158,     1
*Surface, type=ELEMENT, name=Polymer-rivet-bot-3
_Polymer-rivet-bot-3_S2, S2
** Section: PolySec
*Solid Section, elset=_PickedSet22, material=Polymer
,
** Section: PolySec
*Solid Section, elset=_PickedSet12, material=Polymer
,
** Section: PolySec
*Solid Section, elset=PolySet, material=Polymer
,
** Section: PolySec
*Solid Section, elset=_PickedSet17, material=Polymer
,
** Section: PolySec
*Solid Section, elset=_PickedSet27, material=Polymer
,
*End Part
**  
**
** ASSEMBLY
**
*Assembly, name=Assembly
**  
*Instance, name=Polymer-1, part=Polymer
*End Instance
**  
*Instance, name=Battery-1, part=Battery
         10.,          10.,           0.
*End Instance
**  
*Instance, name=CF-1, part=CF
          0.,           0.,         -0.4
*End Instance
**  
*Instance, name=CF-2, part=CF
          0.,           0.,          5.4
*End Instance
**  
*Node
      1,          55.,          55.,    5.4000001
*Nset, nset=VerticalSupport, instance=CF-1
   3,   4,   7,   8,  62,  63,  64,  65,  66,  67,  68,  69,  70,  71,  72,  73
  74,  75,  76,  77,  78,  79,  80,  81,  82,  83,  84,  85,  86,  87,  88,  89
  90,  91,  92,  93,  94,  95,  96,  97, 170, 171, 172, 173, 174, 175, 176, 177
 178, 179, 180, 181, 182, 183, 184, 185, 186, 187, 188, 189, 190, 191, 192, 193
 194, 195, 196, 197, 198, 199, 200, 201, 202, 203, 204, 205
*Elset, elset=VerticalSupport, instance=CF-1
  630,  631,  632,  633,  634,  635,  636,  637,  638,  639,  640,  641,  642,  643,  644,  645
  646,  647,  648,  649,  650,  651,  652,  653,  654,  655,  656,  657,  658,  659,  660,  661
  662,  663,  664,  665,  666, 1370, 1371, 1372, 1373, 1374, 1375, 1376, 1377, 1378, 1379, 1380
 1381, 1382, 1383, 1384, 1385, 1386, 1387, 1388, 1389, 1390, 1391, 1392, 1393, 1394, 1395, 1396
 1397, 1398, 1399, 1400, 1401, 1402, 1403, 1404, 1405, 1406
*Nset, nset=XDirSupport, instance=CF-1
 3,
*Nset, nset=YDirSupport, instance=CF-1
 7,
*Nset, nset=rigid_loading_set, instance=CF-2
   1,   2,   5,   6,   9,  10,  11,  12,  13,  14,  15,  16,  17,  18,  19,  20
  21,  22,  23,  24,  25,  26,  27,  28,  29,  30,  31,  32,  33,  34,  35,  36
  37,  38,  39,  40,  41,  42,  43,  44, 115, 116, 117, 118, 119, 120, 121, 122
 123, 124, 125, 126, 127, 128, 129, 130, 131, 132, 133, 134, 135, 136, 137, 138
 139, 140, 141, 142, 143, 144, 145, 146, 147, 148, 149, 150, 151, 152, 835, 836
 837, 838, 839, 840, 841, 842, 843, 844, 845, 846, 847, 848, 849, 850, 851, 852
 853, 854, 855, 856, 857, 858, 859, 860, 861, 862, 863, 864, 865, 866, 867, 868
 869, 870
*Elset, elset=rigid_loading_set, instance=CF-2, generate
 667,  740,    1
*Nset, nset=_PickedSet14, internal
 1,
*Elset, elset=__PickedSurf15_SPOS, internal, instance=CF-2, generate
 667,  740,    1
*Surface, type=ELEMENT, name=_PickedSurf15, internal
__PickedSurf15_SPOS, SPOS
** Constraint: BatPoly-0
*Tie, name=BatPoly-0, adjust=no, position tolerance=1.
Battery-1.Battery-rivet-0, Polymer-1.Polymer-rivet-0
** Constraint: BatPoly-1
*Tie, name=BatPoly-1, adjust=no, position tolerance=1.
Battery-1.Battery-rivet-1, Polymer-1.Polymer-rivet-1
** Constraint: BatPoly-2
*Tie, name=BatPoly-2, adjust=no, position tolerance=1.
Battery-1.Battery-rivet-2, Polymer-1.Polymer-rivet-2
** Constraint: BatPoly-3
*Tie, name=BatPoly-3, adjust=no, position tolerance=1.
Battery-1.Battery-rivet-3, Polymer-1.Polymer-rivet-3
** Constraint: CF1Poly
*Tie, name=CF1Poly, adjust=no, position tolerance=1.
Polymer-1.PolyBot, CF-1.CFtop
** Constraint: CF1Poly-Rivet-0
*Tie, name=CF1Poly-Rivet-0, adjust=no, position tolerance=1.
Polymer-1.Polymer-rivet-bot-0, CF-1.CFtop
** Constraint: CF1Poly-Rivet-1
*Tie, name=CF1Poly-Rivet-1, adjust=no, position tolerance=1.
Polymer-1.Polymer-rivet-bot-1, CF-1.CFtop
** Constraint: CF1Poly-Rivet-2
*Tie, name=CF1Poly-Rivet-2, adjust=no, position tolerance=1.
Polymer-1.Polymer-rivet-bot-2, CF-1.CFtop
** Constraint: CF1Poly-Rivet-3
*Tie, name=CF1Poly-Rivet-3, adjust=no, position tolerance=1.
Polymer-1.Polymer-rivet-bot-3, CF-1.CFtop
** Constraint: CF2Poly
*Tie, name=CF2Poly, adjust=no, position tolerance=1.
Polymer-1.PolyTop, CF-2.CFbot
** Constraint: CF2Poly-Rivet-0
*Tie, name=CF2Poly-Rivet-0, adjust=no, position tolerance=1.
Polymer-1.Polymer-rivet-top-0, CF-2.CFbot
** Constraint: CF2Poly-Rivet-1
*Tie, name=CF2Poly-Rivet-1, adjust=no, position tolerance=1.
Polymer-1.Polymer-rivet-top-1, CF-2.CFbot
** Constraint: CF2Poly-Rivet-2
*Tie, name=CF2Poly-Rivet-2, adjust=no, position tolerance=1.
Polymer-1.Polymer-rivet-top-2, CF-2.CFbot
** Constraint: CF2Poly-Rivet-3
*Tie, name=CF2Poly-Rivet-3, adjust=no, position tolerance=1.
Polymer-1.Polymer-rivet-top-3, CF-2.CFbot
** Constraint: LoadingRigidBody
*Rigid Body, ref node=_PickedSet14, tie nset=rigid_loading_set
*End Assembly
** 
** MATERIALS
** 
*Material, name=BatOrtho
*Elastic, type=ENGINEERING CONSTANTS
1090., 109., 500., 0.15, 0.15, 0.15, 474., 474.
 474.,
*Material, name=CF_material
*Elastic, type=ENGINEERING CONSTANTS
30420.,  4023.,  4023.,   0.29,   0.29, 0.3928,  2081.,  2081.
  1440.,
*Material, name=Polymer
*Elastic
500., 0.3
** 
** INTERACTION PROPERTIES
** 
*Surface Interaction, name=NormCont
1.,
*Friction, slip tolerance=0.005
 0.3,
*Surface Behavior, pressure-overclosure=HARD
** 
** INTERACTIONS
** 
** Interaction: CF1Bat
*Contact Pair, interaction=NormCont, type=SURFACE TO SURFACE
Battery-1.BatBot, CF-1.CFtop
** Interaction: CF2Bat
*Contact Pair, interaction=NormCont, type=SURFACE TO SURFACE
Battery-1.BatTop, CF-2.CFbot
** ----------------------------------------------------------------
** 
** STEP: Loading
** 
*Step, name=Loading, nlgeom=NO
*Static
1., 1., 1e-05, 1.
** 
** BOUNDARY CONDITIONS
** 
** Name: VerticalSupport Type: Displacement/Rotation
*Boundary
VerticalSupport, 3, 3
** Name: XDirSupport Type: Displacement/Rotation
*Boundary
XDirSupport, 1, 1
** Name: YDirSupport Type: Displacement/Rotation
*Boundary
YDirSupport, 2, 2
** 
** LOADS
** 
** Name: Load-1   Type: Pressure
*Dsload
_PickedSurf15, P, 0.181818
** 
** OUTPUT REQUESTS
** 
*Restart, write, frequency=0
** 
** FIELD OUTPUT: F-Output-1
** 
*Output, field
*Node Output
U, UR, UT
*Element Output, directions=YES
EVOL, 
** 
** HISTORY OUTPUT: H-Output-1
** 
*Output, history, variable=PRESELECT
*End Step
