*Heading
** Job name: Job-43 Model name: Model-1
** Generated by: Abaqus/CAE 2019
*Preprint, echo=NO, model=NO, history=NO, contact=NO
**
** PARTS
**
*Part, name=Battery
*Node
      1,   86.1213226,   43.8165855,           0.
      2,          84.,   44.6952667,           0.
      3,   81.8786774,   43.8165855,           0.
      4,          81.,   41.6952667,           0.
      5,   81.8786774,   39.5739441,           0.
      6,          84.,   38.6952667,           0.
      7,   86.1213226,   39.5739441,           0.
      8,          87.,   41.6952667,           0.
      9,   11.1974564,   85.1320724,           0.
     10,   8.93173504,   86.7782135,           0.
     11,   6.13114977,   86.7782135,           0.
     12,   3.86542845,   85.1320724,           0.
     13,           3.,   82.4685593,           0.
     14,   3.86542845,   79.8050461,           0.
     15,   6.13114977,   78.1588974,           0.
     16,   8.93173504,   78.1588974,           0.
     17,   11.1974564,   79.8050461,           0.
     18,   12.0628843,   82.4685593,           0.
     19,   86.2206497,   11.7257023,           0.
     20,   84.0914307,   13.8549213,           0.
** ... 3997 like lines cut
*Element, type=C3D8R
   1,  235,  137,  136,  234, 1574, 1476, 1475, 1573
   2,  133,  178,  177,  134, 1472, 1517, 1516, 1473
   3,  231,  132,  131,  179, 1570, 1471, 1470, 1518
   4,  125,  180,  230,  126, 1464, 1519, 1569, 1465
   5,  259,  162,    4,    3, 1598, 1501, 1343, 1342
   6,  268,  352,  355,  191, 1607, 1691, 1694, 1530
   7,  305,  273,  209,  208, 1644, 1612, 1548, 1547
   8,  644,  176, 1180,  425, 1983, 1515, 2519, 1764
   9,  362,  274,  297,  361, 1701, 1613, 1636, 1700
  10,  111,  110,  275,  220, 1450, 1449, 1614, 1559
  11, 1177, 1185,  181, 1178, 2516, 2524, 1520, 2517
  12, 1177,  103,   11,   10, 2516, 1442, 1350, 1349
  13,  104, 1178,  181,  105, 1443, 2517, 1520, 1444
  14,  121,  120,  253,  228, 1460, 1459, 1592, 1567
  15,   32,  253,  258, 1188, 1371, 1592, 1597, 2527
  16,  137,  235,  187,  138, 1476, 1574, 1526, 1477
  17,  144,  159, 1174,  145, 1483, 1498, 2513, 1484
  18,  145, 1174, 1175,  146, 1484, 2513, 2514, 1485
  19, 1187,    8,    7,  256, 2526, 1347, 1346, 1595
  20,  241,  149,  148,  240, 1580, 1488, 1487, 1579
** ... 2506 like lines cut
*Nset, nset=Batset, generate
    1,  4017,     1
*Elset, elset=Batset, generate
    1,  2526,     1
*Elset, elset=_BatTop_S2, internal, generate
 1264,  2526,     1
*Surface, type=ELEMENT, name=BatTop
_BatTop_S2, S2
*Elset, elset=_BatBot_S1, internal, generate
    1,  1263,     1
*Surface, type=ELEMENT, name=BatBot
_BatBot_S1, S1
*Elset, elset=_Battery-rivet-0_S3, internal
   51,  102,  116, 1314, 1365, 1379
*Elset, elset=_Battery-rivet-0_S6, internal
  106, 1369
*Elset, elset=_Battery-rivet-0_S4, internal
  138,  140,  145, 1214, 1401, 1403, 1408, 2477
*Surface, type=ELEMENT, name=Battery-rivet-0
_Battery-rivet-0_S3, S3
_Battery-rivet-0_S6, S6
_Battery-rivet-0_S4, S4
*Elset, elset=_Battery-rivet-1_S5, internal
   21,   37,  131,  132,  135,  226,  228, 1284, 1300, 1394, 1395, 1398, 1489, 1491
*Elset, elset=_Battery-rivet-1_S4, internal
   36,   39,  229,  232, 1299, 1302, 1492, 1495
*Elset, elset=_Battery-rivet-1_S3, internal
   55, 1318
*Surface, type=ELEMENT, name=Battery-rivet-1
_Battery-rivet-1_S5, S5
_Battery-rivet-1_S4, S4
_Battery-rivet-1_S3, S3
*Elset, elset=_Battery-rivet-2_S5, internal
   12,  154,  157,  200, 1275, 1417, 1420, 1463
*Elset, elset=_Battery-rivet-2_S6, internal
   30,   94,  156, 1293, 1357, 1419
*Elset, elset=_Battery-rivet-2_S4, internal
   46,   86,  155, 1309, 1349, 1418
*Surface, type=ELEMENT, name=Battery-rivet-2
_Battery-rivet-2_S5, S5
_Battery-rivet-2_S6, S6
_Battery-rivet-2_S4, S4
*Elset, elset=_Battery-rivet-3_S5, internal
    5,  122, 1268, 1385
*Elset, elset=_Battery-rivet-3_S4, internal
   19,  141,  143, 1282, 1404, 1406
*Elset, elset=_Battery-rivet-3_S6, internal
  119,  123, 1382, 1386
*Elset, elset=_Battery-rivet-3_S3, internal
  473, 1736
*Surface, type=ELEMENT, name=Battery-rivet-3
_Battery-rivet-3_S5, S5
_Battery-rivet-3_S4, S4
_Battery-rivet-3_S6, S6
_Battery-rivet-3_S3, S3
*Orientation, name=Ori-1
1., 0., 0., 0., 1., 0.
3, 0.
** Section: BatOrtho
*Solid Section, elset=Batset, orientation=Ori-1, material=BatOrtho
,
*End Part
**  
*Part, name=CF
*Node
      1,         52.5,           0.,           0.
      2,         52.5,         110.,           0.
      3,           0.,         110.,           0.
      4,           0.,           0.,           0.
      5,         57.5,           0.,           0.
      6,         57.5,         110.,           0.
      7,         110.,           0.,           0.
      8,         110.,         110.,           0.
      9,         52.5,   2.97297287,           0.
     10,         52.5,   5.94594574,           0.
     11,         52.5,   8.91891861,           0.
     12,         52.5,   11.8918915,           0.
     13,         52.5,   14.8648653,           0.
     14,         52.5,   17.8378372,           0.
     15,         52.5,   20.8108101,           0.
     16,         52.5,    23.783783,           0.
     17,         52.5,   26.7567558,           0.
     18,         52.5,   29.7297306,           0.
     19,         52.5,   32.7027016,           0.
     20,         52.5,   35.6756744,           0.
** ... 1462 like lines cut
*Element, type=S4R
  1,   1,   9, 223, 114
  2,   9,  10, 224, 223
  3,  10,  11, 225, 224
  4,  11,  12, 226, 225
  5,  12,  13, 227, 226
  6,  13,  14, 228, 227
  7,  14,  15, 229, 228
  8,  15,  16, 230, 229
  9,  16,  17, 231, 230
 10,  17,  18, 232, 231
 11,  18,  19, 233, 232
 12,  19,  20, 234, 233
 13,  20,  21, 235, 234
 14,  21,  22, 236, 235
 15,  22,  23, 237, 236
 16,  23,  24, 238, 237
 17,  24,  25, 239, 238
 18,  25,  26, 240, 239
 19,  26,  27, 241, 240
 20,  27,  28, 242, 241
** ... 1386 like lines cut
*Nset, nset=CF_set, generate
    1,  1482,     1
*Elset, elset=CF_set, generate
    1,  1406,     1
*Elset, elset=_CFtop_SPOS, internal, generate
    1,  1406,     1
*Surface, type=ELEMENT, name=CFtop
_CFtop_SPOS, SPOS
*Elset, elset=_CFbot_SNEG, internal, generate
    1,  1406,     1
*Surface, type=ELEMENT, name=CFbot
_CFbot_SNEG, SNEG
** Section: CF_sec
*Shell Section, elset=CF_set, composite
0.2, 3, CF_material, 0.
0.2, 3, CF_material, 90.
0.2, 3, CF_material, 90.
0.2, 3, CF_material, 0.
*End Part
**  
*Part, name=Polymer
*Node
      1,   22.0628853,   92.4685593,           0.
      2,   22.0628853,   92.4685593,           5.
      3,   71.7881012,          94.,           0.
      4,   71.7881012,          94.,           5.
      5,          10.,         100.,           0.
      6,          10.,          10.,           0.
      7,         100.,          10.,           0.
      8,         100.,         100.,           0.
      9,         110.,           0.,           0.
     10,           0.,           0.,           0.
     11,           0.,         110.,           0.
     12,         110.,         110.,           0.
     13,          10.,          10.,           5.
     14,          10.,         100.,           5.
     15,         100.,         100.,           5.
     16,         100.,          10.,           5.
     17,           0.,         110.,           5.
     18,           0.,           0.,           5.
     19,         110.,           0.,           5.
     20,         110.,         110.,           5.
** ... 2191 like lines cut
*Element, type=C3D8R
 1,  641,  640, 1781,  642,   32,   31,  621,   33
 2, 1781, 1785, 1782, 1783,  621,  625,  622,  623
 3, 1783, 1782, 1786, 1784,  623,  622,  626,  624
 4, 1783,  633,  642, 1781,  623,    1,   33,  621
 5, 1785,  639,  638, 1782,  625,   30,   29,  622
 6, 1785, 1781,  640,  639,  625,  621,   31,   30
 7, 1786,  637,  636, 1784,  626,   28,   27,  624
 8, 1784,  636,  635,  634,  624,   27,   26,   25
 9, 1783, 1784,  634,  633,  623,  624,   25,    1
10,  638,  637, 1786, 1782,   29,   28,  626,  622
11,   35,   36,  627,   34,  641,  640, 1781,  642
12,  627,  631,  628,  629, 1781, 1785, 1782, 1783
13,  629,  628,  632,  630, 1783, 1782, 1786, 1784
14,  629,    2,   34,  627, 1783,  633,  642, 1781
15,  631,   37,   38,  628, 1785,  639,  638, 1782
16,  631,  627,   36,   37, 1785, 1781,  640,  639
17,  632,   39,   40,  630, 1786,  637,  636, 1784
18,  630,   40,   41,   42, 1784,  636,  635,  634
19,  629,  630,   42,    2, 1783, 1784,  634,  633
20,   38,   39,  632,  628,  638,  637, 1786, 1782
** ... 1140 like lines cut
*Nset, nset=PolySet
    5,    6,    7,    8,    9,   10,   11,   12,   13,   14,   15,   16,   17,   18,   19,   20
   57,   58,   59,   60,   61,   62,   63,   64,   65,   66,   67,   68,   69,   70,   71,   72
   73,   74,   75,   76,   77,   78,   79,   80,   81,   82,   83,   84,   85,   86,   87,   88
   89,   90,   91,   92,   93,   94,   95,   96,   97,   98,   99,  100,  101,  102,  103,  104
  105,  106,  107,  108,  109,  110,  111,  112,  113,  114,  115,  116,  117,  118,  119,  120
  121,  122,  123,  124,  125,  126,  127,  128,  129,  130,  131,  132,  133,  134,  135,  136
  137,  138,  139,  140,  141,  142,  143,  144,  145,  146,  147,  148,  149,  150,  151,  152
  153,  154,  155,  156,  157,  158,  159,  160,  161,  162,  163,  164,  165,  166,  167,  168
  169,  170,  171,  172,  173,  174,  175,  176,  177,  178,  179,  180,  181,  182,  183,  184
  185,  186,  187,  188,  189,  190,  191,  192,  193,  194,  195,  196,  197,  198,  199,  200
  201,  202,  203,  204,  205,  206,  207,  208,  209,  210,  211,  212,  213,  214,  215,  216
  217,  218,  219,  220,  221,  222,  223,  224,  225,  226,  227,  228,  229,  230,  231,  232
  233,  234,  235,  236,  237,  238,  239,  240,  241,  242,  243,  244,  245,  246,  247,  248
  249,  250,  251,  252,  253,  254,  255,  256,  257,  258,  259,  260,  261,  262,  263,  264
  265,  266,  267,  268,  269,  270,  271,  272,  273,  274,  275,  276,  277,  278,  279,  280
  281,  282,  283,  284,  285,  286,  287,  288,  289,  290,  291,  292,  293,  294,  295,  296
  297,  298,  299,  300,  301,  302,  303,  304,  305,  306,  307,  308,  309,  310,  311,  312
  313,  314,  315,  316,  317,  318,  319,  320,  321,  322,  323,  324,  325,  326,  327,  328
  329,  330,  331,  332,  333,  334,  335,  336,  337,  338,  339,  340,  341,  342,  343,  344
  345,  346,  347,  348,  349,  350,  351,  352,  353,  354,  355,  356,  357,  358,  359,  360
** ... 106 like lines cut
*Elset, elset=PolySet, generate
   29,  1100,     1
*Nset, nset=_PickedSet12, internal
    3,    4,   43,   44,   45,   46,   47,   48,   49,   50,   51,   52,   53,   54,   55,   56
  643,  644,  645,  646,  647,  648,  649,  650,  651,  652, 1787
*Elset, elset=_PickedSet12, internal, generate
 21,  28,   1
*Nset, nset=_PickedSet17, internal
   21,   22,  585,  586,  587,  588,  589,  590,  591,  592,  593,  594,  595,  596,  597,  598
  599,  600,  601,  602,  603,  604,  605,  606, 1717, 1718, 1719, 1720, 1721, 1722, 1723, 1724
 1725, 1726, 1727, 1728, 1729, 1730, 1731, 1732, 1733, 1734, 1735, 1736, 1737, 1738, 1739, 1740
 1741, 1742, 1743, 1744, 1745, 1746, 1747, 1748, 1749, 1750, 1751, 1752, 1753, 1754, 1755, 1756
 1757, 1758, 1759, 1760, 1761, 1762, 1763, 1764, 1765, 1766, 1767, 1768, 1769, 1770, 2190, 2191
 2192, 2193, 2194, 2195, 2196, 2197, 2198, 2199, 2200, 2201, 2202, 2203, 2204, 2205, 2206, 2207
 2208, 2209, 2210
*Elset, elset=_PickedSet17, internal, generate
 1101,  1152,     1
*Nset, nset=_PickedSet22, internal
    1,    2,   25,   26,   27,   28,   29,   30,   31,   32,   33,   34,   35,   36,   37,   38
   39,   40,   41,   42,  621,  622,  623,  624,  625,  626,  627,  628,  629,  630,  631,  632
  633,  634,  635,  636,  637,  638,  639,  640,  641,  642, 1781, 1782, 1783, 1784, 1785, 1786
*Elset, elset=_PickedSet22, internal, generate
  1,  20,   1
*Nset, nset=_PickedSet27, internal
   23,   24,  607,  608,  609,  610,  611,  612,  613,  614,  615,  616,  617,  618,  619,  620
 1771, 1772, 1773, 1774, 1775, 1776, 1777, 1778, 1779, 1780, 2211
*Elset, elset=_PickedSet27, internal, generate
 1153,  1160,     1
*Elset, elset=_PolyTop_S2, internal, generate
  565,  1100,     1
*Surface, type=ELEMENT, name=PolyTop
_PolyTop_S2, S2
*Elset, elset=_PolyBot_S1, internal, generate
  29,  564,    1
*Surface, type=ELEMENT, name=PolyBot
_PolyBot_S1, S1
*Elset, elset=_Polymer-rivet-0_S4, internal
 21, 24, 25, 28
*Elset, elset=_Polymer-rivet-0_S5, internal
 21, 24, 25, 28
*Elset, elset=_Polymer-rivet-0_S3, internal
 22, 23, 26, 27
*Elset, elset=_Polymer-rivet-0_S6, internal
 22, 23, 26, 27
*Surface, type=ELEMENT, name=Polymer-rivet-0
_Polymer-rivet-0_S4, S4
_Polymer-rivet-0_S5, S5
_Polymer-rivet-0_S6, S6
_Polymer-rivet-0_S3, S3
*Elset, elset=_Polymer-rivet-top-0_S1, internal, generate
 25,  28,   1
*Surface, type=ELEMENT, name=Polymer-rivet-top-0
_Polymer-rivet-top-0_S1, S1
*Elset, elset=_Polymer-rivet-bot-0_S2, internal, generate
 21,  24,   1
*Surface, type=ELEMENT, name=Polymer-rivet-bot-0
_Polymer-rivet-bot-0_S2, S2
*Elset, elset=_Polymer-rivet-1_S6, internal
 1101, 1104, 1112, 1115, 1123, 1127, 1130, 1138, 1141, 1149
*Elset, elset=_Polymer-rivet-1_S3, internal
 1102, 1111, 1114, 1118, 1119, 1128, 1137, 1140, 1144, 1145
*Elset, elset=_Polymer-rivet-1_S5, internal
 1105, 1120, 1131, 1146
*Surface, type=ELEMENT, name=Polymer-rivet-1
_Polymer-rivet-1_S6, S6
_Polymer-rivet-1_S3, S3
_Polymer-rivet-1_S5, S5
*Elset, elset=_Polymer-rivet-top-1_S1, internal, generate
 1127,  1152,     1
*Surface, type=ELEMENT, name=Polymer-rivet-top-1
_Polymer-rivet-top-1_S1, S1
*Elset, elset=_Polymer-rivet-bot-1_S2, internal, generate
 1101,  1126,     1
*Surface, type=ELEMENT, name=Polymer-rivet-bot-1
_Polymer-rivet-bot-1_S2, S2
*Elset, elset=_Polymer-rivet-2_S3, internal
  1, 10, 11, 20
*Elset, elset=_Polymer-rivet-2_S6, internal
  1, 11
*Elset, elset=_Polymer-rivet-2_S4, internal
  4,  5,  7,  8, 14, 15, 17, 18
*Elset, elset=_Polymer-rivet-2_S5, internal
  6,  8,  9, 16, 18, 19
*Surface, type=ELEMENT, name=Polymer-rivet-2
_Polymer-rivet-2_S3, S3
_Polymer-rivet-2_S6, S6
_Polymer-rivet-2_S4, S4
_Polymer-rivet-2_S5, S5
*Elset, elset=_Polymer-rivet-top-2_S1, internal, generate
 11,  20,   1
*Surface, type=ELEMENT, name=Polymer-rivet-top-2
_Polymer-rivet-top-2_S1, S1
*Elset, elset=_Polymer-rivet-bot-2_S2, internal, generate
  1,  10,   1
*Surface, type=ELEMENT, name=Polymer-rivet-bot-2
_Polymer-rivet-bot-2_S2, S2
*Elset, elset=_Polymer-rivet-3_S4, internal
 1153, 1155, 1156, 1157, 1159, 1160
*Elset, elset=_Polymer-rivet-3_S5, internal
 1153, 1155, 1156, 1157, 1159, 1160
*Elset, elset=_Polymer-rivet-3_S3, internal
 1154, 1158
*Elset, elset=_Polymer-rivet-3_S6, internal
 1154, 1158
*Surface, type=ELEMENT, name=Polymer-rivet-3
_Polymer-rivet-3_S4, S4
_Polymer-rivet-3_S5, S5
_Polymer-rivet-3_S6, S6
_Polymer-rivet-3_S3, S3
*Elset, elset=_Polymer-rivet-top-3_S1, internal, generate
 1157,  1160,     1
*Surface, type=ELEMENT, name=Polymer-rivet-top-3
_Polymer-rivet-top-3_S1, S1
*Elset, elset=_Polymer-rivet-bot-3_S2, internal, generate
 1153,  1156,     1
*Surface, type=ELEMENT, name=Polymer-rivet-bot-3
_Polymer-rivet-bot-3_S2, S2
** Section: PolySec
*Solid Section, elset=_PickedSet22, material=Polymer
,
** Section: PolySec
*Solid Section, elset=_PickedSet12, material=Polymer
,
** Section: PolySec
*Solid Section, elset=PolySet, material=Polymer
,
** Section: PolySec
*Solid Section, elset=_PickedSet17, material=Polymer
,
** Section: PolySec
*Solid Section, elset=_PickedSet27, material=Polymer
,
*End Part
**  
**
** ASSEMBLY
**
*Assembly, name=Assembly
**  
*Instance, name=Polymer-1, part=Polymer
*End Instance
**  
*Instance, name=Battery-1, part=Battery
         10.,          10.,           0.
*End Instance
**  
*Instance, name=CF-1, part=CF
          0.,           0.,         -0.4
*End Instance
**  
*Instance, name=CF-2, part=CF
          0.,           0.,          5.4
*End Instance
**  
*Node
      1,          55.,          55.,    5.4000001
*Nset, nset=VerticalSupport, instance=CF-1
   3,   4,   7,   8,  62,  63,  64,  65,  66,  67,  68,  69,  70,  71,  72,  73
  74,  75,  76,  77,  78,  79,  80,  81,  82,  83,  84,  85,  86,  87,  88,  89
  90,  91,  92,  93,  94,  95,  96,  97, 170, 171, 172, 173, 174, 175, 176, 177
 178, 179, 180, 181, 182, 183, 184, 185, 186, 187, 188, 189, 190, 191, 192, 193
 194, 195, 196, 197, 198, 199, 200, 201, 202, 203, 204, 205
*Elset, elset=VerticalSupport, instance=CF-1
  630,  631,  632,  633,  634,  635,  636,  637,  638,  639,  640,  641,  642,  643,  644,  645
  646,  647,  648,  649,  650,  651,  652,  653,  654,  655,  656,  657,  658,  659,  660,  661
  662,  663,  664,  665,  666, 1370, 1371, 1372, 1373, 1374, 1375, 1376, 1377, 1378, 1379, 1380
 1381, 1382, 1383, 1384, 1385, 1386, 1387, 1388, 1389, 1390, 1391, 1392, 1393, 1394, 1395, 1396
 1397, 1398, 1399, 1400, 1401, 1402, 1403, 1404, 1405, 1406
*Nset, nset=XDirSupport, instance=CF-1
 3,
*Nset, nset=YDirSupport, instance=CF-1
 7,
*Nset, nset=rigid_loading_set, instance=CF-2
   1,   2,   5,   6,   9,  10,  11,  12,  13,  14,  15,  16,  17,  18,  19,  20
  21,  22,  23,  24,  25,  26,  27,  28,  29,  30,  31,  32,  33,  34,  35,  36
  37,  38,  39,  40,  41,  42,  43,  44, 115, 116, 117, 118, 119, 120, 121, 122
 123, 124, 125, 126, 127, 128, 129, 130, 131, 132, 133, 134, 135, 136, 137, 138
 139, 140, 141, 142, 143, 144, 145, 146, 147, 148, 149, 150, 151, 152, 835, 836
 837, 838, 839, 840, 841, 842, 843, 844, 845, 846, 847, 848, 849, 850, 851, 852
 853, 854, 855, 856, 857, 858, 859, 860, 861, 862, 863, 864, 865, 866, 867, 868
 869, 870
*Elset, elset=rigid_loading_set, instance=CF-2, generate
 667,  740,    1
*Nset, nset=_PickedSet14, internal
 1,
*Elset, elset=__PickedSurf15_SPOS, internal, instance=CF-2, generate
 667,  740,    1
*Surface, type=ELEMENT, name=_PickedSurf15, internal
__PickedSurf15_SPOS, SPOS
** Constraint: BatPoly-0
*Tie, name=BatPoly-0, adjust=no, position tolerance=1.
Battery-1.Battery-rivet-0, Polymer-1.Polymer-rivet-0
** Constraint: BatPoly-1
*Tie, name=BatPoly-1, adjust=no, position tolerance=1.
Battery-1.Battery-rivet-1, Polymer-1.Polymer-rivet-1
** Constraint: BatPoly-2
*Tie, name=BatPoly-2, adjust=no, position tolerance=1.
Battery-1.Battery-rivet-2, Polymer-1.Polymer-rivet-2
** Constraint: BatPoly-3
*Tie, name=BatPoly-3, adjust=no, position tolerance=1.
Battery-1.Battery-rivet-3, Polymer-1.Polymer-rivet-3
** Constraint: CF1Poly
*Tie, name=CF1Poly, adjust=no, position tolerance=1.
Polymer-1.PolyBot, CF-1.CFtop
** Constraint: CF1Poly-Rivet-0
*Tie, name=CF1Poly-Rivet-0, adjust=no, position tolerance=1.
Polymer-1.Polymer-rivet-bot-0, CF-1.CFtop
** Constraint: CF1Poly-Rivet-1
*Tie, name=CF1Poly-Rivet-1, adjust=no, position tolerance=1.
Polymer-1.Polymer-rivet-bot-1, CF-1.CFtop
** Constraint: CF1Poly-Rivet-2
*Tie, name=CF1Poly-Rivet-2, adjust=no, position tolerance=1.
Polymer-1.Polymer-rivet-bot-2, CF-1.CFtop
** Constraint: CF1Poly-Rivet-3
*Tie, name=CF1Poly-Rivet-3, adjust=no, position tolerance=1.
Polymer-1.Polymer-rivet-bot-3, CF-1.CFtop
** Constraint: CF2Poly
*Tie, name=CF2Poly, adjust=no, position tolerance=1.
Polymer-1.PolyTop, CF-2.CFbot
** Constraint: CF2Poly-Rivet-0
*Tie, name=CF2Poly-Rivet-0, adjust=no, position tolerance=1.
Polymer-1.Polymer-rivet-top-0, CF-2.CFbot
** Constraint: CF2Poly-Rivet-1
*Tie, name=CF2Poly-Rivet-1, adjust=no, position tolerance=1.
Polymer-1.Polymer-rivet-top-1, CF-2.CFbot
** Constraint: CF2Poly-Rivet-2
*Tie, name=CF2Poly-Rivet-2, adjust=no, position tolerance=1.
Polymer-1.Polymer-rivet-top-2, CF-2.CFbot
** Constraint: CF2Poly-Rivet-3
*Tie, name=CF2Poly-Rivet-3, adjust=no, position tolerance=1.
Polymer-1.Polymer-rivet-top-3, CF-2.CFbot
** Constraint: LoadingRigidBody
*Rigid Body, ref node=_PickedSet14, tie nset=rigid_loading_set
*End Assembly
** 
** MATERIALS
** 
*Material, name=BatOrtho
*Elastic, type=ENGINEERING CONSTANTS
1090., 109., 500., 0.15, 0.15, 0.15, 474., 474.
 474.,
*Material, name=CF_material
*Elastic, type=ENGINEERING CONSTANTS
30420.,  4023.,  4023.,   0.29,   0.29, 0.3928,  2081.,  2081.
  1440.,
*Material, name=Polymer
*Elastic
500., 0.3
** 
** INTERACTION PROPERTIES
** 
*Surface Interaction, name=NormCont
1.,
*Friction, slip tolerance=0.005
 0.3,
*Surface Behavior, pressure-overclosure=HARD
** 
** INTERACTIONS
** 
** Interaction: CF1Bat
*Contact Pair, interaction=NormCont, type=SURFACE TO SURFACE
Battery-1.BatBot, CF-1.CFtop
** Interaction: CF2Bat
*Contact Pair, interaction=NormCont, type=SURFACE TO SURFACE
Battery-1.BatTop, CF-2.CFbot
** ----------------------------------------------------------------
** 
** STEP: Loading
** 
*Step, name=Loading, nlgeom=NO
*Static
1., 1., 1e-05, 1.
** 
** BOUNDARY CONDITIONS
** 
** Name: VerticalSupport Type: Displacement/Rotation
*Boundary
VerticalSupport, 3, 3
** Name: XDirSupport Type: Displacement/Rotation
*Boundary
XDirSupport, 1, 1
** Name: YDirSupport Type: Displacement/Rotation
*Boundary
YDirSupport, 2, 2
** 
** LOADS
** 
** Name: Load-1   Type: Pressure
*Dsload
_PickedSurf15, P, 0.181818
** 
** OUTPUT REQUESTS
** 
*Restart, write, frequency=0
** 
** FIELD OUTPUT: F-Output-1
** 
*Output, field
*Node Output
U, UR, UT
*Element Output, directions=YES
EVOL, 
** 
** HISTORY OUTPUT: H-Output-1
** 
*Output, history, variable=PRESELECT
*End Step
