 Abaqus/Standard 3DEXPERIENCE R2019x                  DATE 29-May-2019 TIME 13:50:18
 SUMMARY OF JOB INFORMATION:
 STEP  INC ATT SEVERE EQUIL TOTAL  TOTAL      STEP       INC OF       DOF    IF
               DISCON ITERS ITERS  TIME/    TIME/LPF    TIME/LPF    MONITOR RIKS
               ITERS               FREQ
   1     1   1U   17    16    33  0.000      0.000      1.000     
   1     1   2U   18    16    34  0.000      0.000      0.2500    
   1     1   3U   14     1    15  0.000      0.000      0.06250   
   1     1   4U   19     6    25  0.000      0.000      0.01563   
   1     1   5    15     1    16  0.00391    0.00391    0.003906  
   1     2   1     4     2     6  0.00781    0.00781    0.003906  
   1     3   1U    3     4     7  0.00781    0.00781    0.005859  
   1     3   2     2     1     3  0.00928    0.00928    0.001465  
   1     4   1     1     1     2  0.0115     0.0115     0.002197  
   1     5   1     1     1     2  0.0148     0.0148     0.003296  
   1     6   1     0     1     1  0.0197     0.0197     0.004944  
   1     7   1U    0     4     4  0.0197     0.0197     0.007416  
   1     7   2U    0     5     5  0.0197     0.0197     0.001854  
   1     7   3U    0     5     5  0.0197     0.0197     0.0004635 
   1     7   4U    0     4     4  0.0197     0.0197     0.0001159 
   1     7   5U    0     4     4  0.0197     0.0197     2.897e-05 
                          
 THE ANALYSIS HAS NOT BEEN COMPLETED
