 Abaqus/Standard 3DEXPERIENCE R2019x                  DATE 29-May-2019 TIME 15:21:02
 SUMMARY OF JOB INFORMATION:
 STEP  INC ATT SEVERE EQUIL TOTAL  TOTAL      STEP       INC OF       DOF    IF
               DISCON ITERS ITERS  TIME/    TIME/LPF    TIME/LPF    MONITOR RIKS
               ITERS               FREQ
   1     1   1U   18    16    34  0.000      0.000      1.000     
   1     1   2U   17    16    33  0.000      0.000      0.2500    
   1     1   3U   16     1    17  0.000      0.000      0.06250   
   1     1   4    16     1    17  0.0156     0.0156     0.01563   
   1     2   1U    2     1     3  0.0156     0.0156     0.01563   
   1     2   2U    3     6     9  0.0156     0.0156     0.003906  
   1     2   3     2     1     3  0.0166     0.0166     0.0009766 
   1     3   1U    4     5     9  0.0166     0.0166     0.001465  
   1     3   2U    4     4     8  0.0166     0.0166     0.0003662 
   1     3   3U    3     5     8  0.0166     0.0166     9.155e-05 
   1     3   4U    1     5     6  0.0166     0.0166     2.289e-05 
   1     3   5U    1     4     5  0.0166     0.0166     1.000e-05 
                          
 THE ANALYSIS HAS NOT BEEN COMPLETED
