*Heading
** Job name: Job-1 Model name: Model-1
** Generated by: Abaqus/CAE 2019
*Preprint, echo=NO, model=NO, history=NO, contact=NO
**
** PARTS
**
*Part, name=Battery
*Node
      1,   42.0870476,   62.0573044,           0.
      2,   39.9657288,   62.9359818,           0.
      3,   37.8444061,   62.0573044,           0.
      4,   36.9657288,   59.9359818,           0.
      5,   37.8444061,   57.8146629,           0.
      6,   39.9657288,   56.9359818,           0.
      7,   42.0870476,   57.8146629,           0.
      8,   42.9657288,   59.9359818,           0.
      9,   86.2298584,   58.2185936,           0.
     10,   84.1257858,   60.3226624,           0.
     11,   81.2515793,    61.092804,           0.
     12,   78.3773651,   60.3226624,           0.
     13,   76.2733002,   58.2185936,           0.
     14,   75.5031586,   55.3443832,           0.
     15,   76.2733002,   52.4701691,           0.
     16,   78.3773651,   50.3661003,           0.
     17,   81.2515793,   49.5959587,           0.
     18,   84.1257858,   50.3661003,           0.
     19,   86.2298584,   52.4701691,           0.
     20,          87.,   55.3443832,           0.
** ... 3940 like lines cut
*Element, type=C3D8R
   1,  283,   35,   34,  164, 1603, 1355, 1354, 1484
   2,  165,  284,  167,    2, 1485, 1604, 1487, 1322
   3,  166,  285,  164,   34, 1486, 1605, 1484, 1354
   4,  478,  282,  167,  377, 1798, 1602, 1487, 1697
   5,  234,   90,   89,  233, 1554, 1410, 1409, 1553
   6, 1173,  157,  161,  322, 2493, 1477, 1481, 1642
   7,  158,  489,  161,   22, 1478, 1809, 1481, 1342
   8,  217,   62,   61,  219, 1537, 1382, 1381, 1539
   9,  206,  190,  148,  147, 1526, 1510, 1468, 1467
  10,  332,  204,  202,  295, 1652, 1524, 1522, 1615
  11,  289,  400,  295,  202, 1609, 1720, 1615, 1522
  12,   19,   18,  182,  181, 1339, 1338, 1502, 1501
  13,  332,  406,  404,  298, 1652, 1726, 1724, 1618
  14,  201,   50,   49,  207, 1521, 1370, 1369, 1527
  15,  499,  192,  181,  182, 1819, 1512, 1501, 1502
  16,   20,   19,  140,  139, 1340, 1339, 1460, 1459
  17,  261,    9,  138,  137, 1581, 1329, 1458, 1457
  18,  133,  132,  253,  257, 1453, 1452, 1573, 1577
  19,  193,  194,  125,  124, 1513, 1514, 1445, 1444
  20,   40,  127,  195,  128, 1360, 1447, 1515, 1448
** ... 2470 like lines cut
*Nset, nset=Batset, generate
    1,  3960,     1
*Elset, elset=Batset, generate
    1,  2490,     1
*Elset, elset=_BatTop_S2, internal, generate
 1246,  2490,     1
*Surface, type=ELEMENT, name=BatTop
_BatTop_S2, S2
*Elset, elset=_BatBot_S1, internal, generate
    1,  1245,     1
*Surface, type=ELEMENT, name=BatBot
_BatBot_S1, S1
*Elset, elset=_Battery-rivet-0_S4, internal
    1,   23,  101, 1246, 1268, 1346
*Elset, elset=_Battery-rivet-0_S6, internal
   95,   99, 1340, 1344
*Elset, elset=_Battery-rivet-0_S3, internal
   96, 1341
*Elset, elset=_Battery-rivet-0_S5, internal
  149,  286, 1394, 1531
*Surface, type=ELEMENT, name=Battery-rivet-0
_Battery-rivet-0_S4, S4
_Battery-rivet-0_S6, S6
_Battery-rivet-0_S3, S3
_Battery-rivet-0_S5, S5
*Elset, elset=_Battery-rivet-1_S6, internal
   42,   68, 1287, 1313
*Elset, elset=_Battery-rivet-1_S3, internal
   44,   64, 1289, 1309
*Elset, elset=_Battery-rivet-1_S4, internal
   63,  140,  142, 1308, 1385, 1387
*Elset, elset=_Battery-rivet-1_S5, internal
   67, 1312
*Surface, type=ELEMENT, name=Battery-rivet-1
_Battery-rivet-1_S6, S6
_Battery-rivet-1_S3, S3
_Battery-rivet-1_S4, S4
_Battery-rivet-1_S5, S5
*Elset, elset=_Battery-rivet-2_S3, internal
   12,   16,   49, 1257, 1261, 1294
*Elset, elset=_Battery-rivet-2_S5, internal
  107,  124,  173,  177, 1352, 1369, 1418, 1422
*Elset, elset=_Battery-rivet-2_S4, internal
  120,  123,  171,  172,  180, 1365, 1368, 1416, 1417, 1425
*Surface, type=ELEMENT, name=Battery-rivet-2
_Battery-rivet-2_S3, S3
_Battery-rivet-2_S5, S5
_Battery-rivet-2_S4, S4
*Elset, elset=_Battery-rivet-3_S3, internal
   34, 1279
*Elset, elset=_Battery-rivet-3_S4, internal
   81,  150,  154,  155,  159,  164, 1326, 1395, 1399, 1400, 1404, 1409
*Elset, elset=_Battery-rivet-3_S5, internal
  152, 1397
*Surface, type=ELEMENT, name=Battery-rivet-3
_Battery-rivet-3_S3, S3
_Battery-rivet-3_S4, S4
_Battery-rivet-3_S5, S5
*Orientation, name=Ori-1
1., 0., 0., 0., 1., 0.
3, 0.
** Section: BatOrtho
*Solid Section, elset=Batset, orientation=Ori-1, material=BatOrtho
,
*End Part
**  
*Part, name=CF
*Node
      1,         52.5,           0.,           0.
      2,         52.5,         110.,           0.
      3,           0.,         110.,           0.
      4,           0.,           0.,           0.
      5,         57.5,           0.,           0.
      6,         57.5,         110.,           0.
      7,         110.,           0.,           0.
      8,         110.,         110.,           0.
      9,         52.5,   2.97297287,           0.
     10,         52.5,   5.94594574,           0.
     11,         52.5,   8.91891861,           0.
     12,         52.5,   11.8918915,           0.
     13,         52.5,   14.8648653,           0.
     14,         52.5,   17.8378372,           0.
     15,         52.5,   20.8108101,           0.
     16,         52.5,    23.783783,           0.
     17,         52.5,   26.7567558,           0.
     18,         52.5,   29.7297306,           0.
     19,         52.5,   32.7027016,           0.
     20,         52.5,   35.6756744,           0.
** ... 1462 like lines cut
*Element, type=S4R
  1,   1,   9, 223, 114
  2,   9,  10, 224, 223
  3,  10,  11, 225, 224
  4,  11,  12, 226, 225
  5,  12,  13, 227, 226
  6,  13,  14, 228, 227
  7,  14,  15, 229, 228
  8,  15,  16, 230, 229
  9,  16,  17, 231, 230
 10,  17,  18, 232, 231
 11,  18,  19, 233, 232
 12,  19,  20, 234, 233
 13,  20,  21, 235, 234
 14,  21,  22, 236, 235
 15,  22,  23, 237, 236
 16,  23,  24, 238, 237
 17,  24,  25, 239, 238
 18,  25,  26, 240, 239
 19,  26,  27, 241, 240
 20,  27,  28, 242, 241
** ... 1386 like lines cut
*Nset, nset=CF_set, generate
    1,  1482,     1
*Elset, elset=CF_set, generate
    1,  1406,     1
*Elset, elset=_CFtop_SPOS, internal, generate
    1,  1406,     1
*Surface, type=ELEMENT, name=CFtop
_CFtop_SPOS, SPOS
*Elset, elset=_CFbot_SNEG, internal, generate
    1,  1406,     1
*Surface, type=ELEMENT, name=CFbot
_CFbot_SNEG, SNEG
** Section: CF_sec
*Shell Section, elset=CF_set, composite
0.2, 3, CF_material, 0.
0.2, 3, CF_material, 90.
0.2, 3, CF_material, 90.
0.2, 3, CF_material, 0.
*End Part
**  
*Part, name=Polymer
*Node
      1,          97.,   65.3443832,           0.
      2,          97.,   65.3443832,           5.
      3,   56.1314888,          94.,           0.
      4,   56.1314888,          94.,           5.
      5,          10.,         100.,           0.
      6,          10.,          10.,           0.
      7,         100.,          10.,           0.
      8,         100.,         100.,           0.
      9,         110.,           0.,           0.
     10,           0.,           0.,           0.
     11,           0.,         110.,           0.
     12,         110.,         110.,           0.
     13,          10.,          10.,           5.
     14,          10.,         100.,           5.
     15,         100.,         100.,           5.
     16,         100.,          10.,           5.
     17,           0.,         110.,           5.
     18,           0.,           0.,           5.
     19,         110.,           0.,           5.
     20,         110.,         110.,           5.
** ... 2155 like lines cut
*Element, type=C3D8R
 1, 1770, 1768, 1767, 1766,  632,  630,  629,  628
 2,  658,  657, 1766, 1767,   33,   32,  628,  629
 3, 1755, 1759, 1758, 1769,  617,  621,  620,  631
 4,  660,  659, 1768, 1769,   35,   34,  630,  631
 5, 1757, 1760, 1759, 1755,  619,  622,  621,  617
 6, 1769, 1758,  649,  660,  631,  620,    1,   35
 7, 1766, 1765, 1756, 1770,  628,  627,  618,  632
 8,  656, 1765, 1766,  657,   31,  627,  628,   32
 9,  656,  655, 1764, 1765,   31,   30,  626,  627
10,  654, 1763, 1764,  655,   29,  625,  626,   30
11,  653, 1762, 1763,  654,   28,  624,  625,   29
12, 1757, 1762, 1761, 1760,  619,  624,  623,  622
13, 1758, 1759,  650,  649,  620,  621,   25,    1
14,  651,  650, 1759, 1760,   26,   25,  621,  622
15,  652,  651, 1760, 1761,   27,   26,  622,  623
16, 1761, 1762,  653,  652,  623,  624,   28,   27
17,  658, 1767, 1768,  659,   33,  629,  630,   34
18, 1769, 1768, 1770, 1755,  631,  630,  632,  617
19, 1764, 1763, 1756, 1765,  626,  625,  618,  627
20, 1763, 1762, 1757, 1756,  625,  624,  619,  618
** ... 1118 like lines cut
*Nset, nset=PolySet
    5,    6,    7,    8,    9,   10,   11,   12,   13,   14,   15,   16,   17,   18,   19,   20
   61,   62,   63,   64,   65,   66,   67,   68,   69,   70,   71,   72,   73,   74,   75,   76
   77,   78,   79,   80,   81,   82,   83,   84,   85,   86,   87,   88,   89,   90,   91,   92
   93,   94,   95,   96,   97,   98,   99,  100,  101,  102,  103,  104,  105,  106,  107,  108
  109,  110,  111,  112,  113,  114,  115,  116,  117,  118,  119,  120,  121,  122,  123,  124
  125,  126,  127,  128,  129,  130,  131,  132,  133,  134,  135,  136,  137,  138,  139,  140
  141,  142,  143,  144,  145,  146,  147,  148,  149,  150,  151,  152,  153,  154,  155,  156
  157,  158,  159,  160,  161,  162,  163,  164,  165,  166,  167,  168,  169,  170,  171,  172
  173,  174,  175,  176,  177,  178,  179,  180,  181,  182,  183,  184,  185,  186,  187,  188
  189,  190,  191,  192,  193,  194,  195,  196,  197,  198,  199,  200,  201,  202,  203,  204
  205,  206,  207,  208,  209,  210,  211,  212,  213,  214,  215,  216,  217,  218,  219,  220
  221,  222,  223,  224,  225,  226,  227,  228,  229,  230,  231,  232,  233,  234,  235,  236
  237,  238,  239,  240,  241,  242,  243,  244,  245,  246,  247,  248,  249,  250,  251,  252
  253,  254,  255,  256,  257,  258,  259,  260,  261,  262,  263,  264,  265,  266,  267,  268
  269,  270,  271,  272,  273,  274,  275,  276,  277,  278,  279,  280,  281,  282,  283,  284
  285,  286,  287,  288,  289,  290,  291,  292,  293,  294,  295,  296,  297,  298,  299,  300
  301,  302,  303,  304,  305,  306,  307,  308,  309,  310,  311,  312,  313,  314,  315,  316
  317,  318,  319,  320,  321,  322,  323,  324,  325,  326,  327,  328,  329,  330,  331,  332
  333,  334,  335,  336,  337,  338,  339,  340,  341,  342,  343,  344,  345,  346,  347,  348
  349,  350,  351,  352,  353,  354,  355,  356,  357,  358,  359,  360,  361,  362,  363,  364
** ... 106 like lines cut
*Elset, elset=PolySet, generate
   51,  1122,     1
*Nset, nset=_PickedSet12, internal
    3,    4,   47,   48,   49,   50,   51,   52,   53,   54,   55,   56,   57,   58,   59,   60
  661,  662,  663,  664,  665,  666,  667,  668,  669,  670, 1771
*Elset, elset=_PickedSet12, internal, generate
 43,  50,   1
*Nset, nset=_PickedSet17, internal
   21,   22,  589,  590,  591,  592,  593,  594,  595,  596,  597,  598,  599,  600,  601,  602
 1735, 1736, 1737, 1738, 1739, 1740, 1741, 1742, 1743, 1744, 2174
*Elset, elset=_PickedSet17, internal, generate
 1123,  1130,     1
*Nset, nset=_PickedSet22, internal
    1,    2,   25,   26,   27,   28,   29,   30,   31,   32,   33,   34,   35,   36,   37,   38
   39,   40,   41,   42,   43,   44,   45,   46,  617,  618,  619,  620,  621,  622,  623,  624
  625,  626,  627,  628,  629,  630,  631,  632,  633,  634,  635,  636,  637,  638,  639,  640
  641,  642,  643,  644,  645,  646,  647,  648,  649,  650,  651,  652,  653,  654,  655,  656
  657,  658,  659,  660, 1755, 1756, 1757, 1758, 1759, 1760, 1761, 1762, 1763, 1764, 1765, 1766
 1767, 1768, 1769, 1770
*Elset, elset=_PickedSet22, internal, generate
  1,  42,   1
*Nset, nset=_PickedSet27, internal
   23,   24,  603,  604,  605,  606,  607,  608,  609,  610,  611,  612,  613,  614,  615,  616
 1745, 1746, 1747, 1748, 1749, 1750, 1751, 1752, 1753, 1754, 2175
*Elset, elset=_PickedSet27, internal, generate
 1131,  1138,     1
*Elset, elset=_PolyTop_S2, internal, generate
  587,  1122,     1
*Surface, type=ELEMENT, name=PolyTop
_PolyTop_S2, S2
*Elset, elset=_PolyBot_S1, internal, generate
  51,  586,    1
*Surface, type=ELEMENT, name=PolyBot
_PolyBot_S1, S1
*Elset, elset=_Polymer-rivet-0_S3, internal
 43, 44, 45, 47, 48, 49
*Elset, elset=_Polymer-rivet-0_S6, internal
 43, 44, 45, 47, 48, 49
*Elset, elset=_Polymer-rivet-0_S4, internal
 46, 50
*Elset, elset=_Polymer-rivet-0_S5, internal
 46, 50
*Surface, type=ELEMENT, name=Polymer-rivet-0
_Polymer-rivet-0_S3, S3
_Polymer-rivet-0_S6, S6
_Polymer-rivet-0_S4, S4
_Polymer-rivet-0_S5, S5
*Elset, elset=_Polymer-rivet-top-0_S1, internal, generate
 47,  50,   1
*Surface, type=ELEMENT, name=Polymer-rivet-top-0
_Polymer-rivet-top-0_S1, S1
*Elset, elset=_Polymer-rivet-bot-0_S2, internal, generate
 43,  46,   1
*Surface, type=ELEMENT, name=Polymer-rivet-bot-0
_Polymer-rivet-bot-0_S2, S2
*Elset, elset=_Polymer-rivet-1_S3, internal
 1123, 1124, 1125, 1127, 1128, 1129
*Elset, elset=_Polymer-rivet-1_S6, internal
 1123, 1124, 1125, 1127, 1128, 1129
*Elset, elset=_Polymer-rivet-1_S4, internal
 1126, 1130
*Elset, elset=_Polymer-rivet-1_S5, internal
 1126, 1130
*Surface, type=ELEMENT, name=Polymer-rivet-1
_Polymer-rivet-1_S3, S3
_Polymer-rivet-1_S6, S6
_Polymer-rivet-1_S4, S4
_Polymer-rivet-1_S5, S5
*Elset, elset=_Polymer-rivet-top-1_S1, internal, generate
 1127,  1130,     1
*Surface, type=ELEMENT, name=Polymer-rivet-top-1
_Polymer-rivet-top-1_S1, S1
*Elset, elset=_Polymer-rivet-bot-1_S2, internal, generate
 1123,  1126,     1
*Surface, type=ELEMENT, name=Polymer-rivet-bot-1
_Polymer-rivet-bot-1_S2, S2
*Elset, elset=_Polymer-rivet-2_S3, internal
  2,  4,  9, 14, 15, 23, 25, 30, 35, 36
*Elset, elset=_Polymer-rivet-2_S5, internal
  6, 13, 16, 27, 34, 37
*Elset, elset=_Polymer-rivet-2_S6, internal
  8, 10, 11, 17, 29, 31, 32, 38
*Surface, type=ELEMENT, name=Polymer-rivet-2
_Polymer-rivet-2_S3, S3
_Polymer-rivet-2_S5, S5
_Polymer-rivet-2_S6, S6
*Elset, elset=_Polymer-rivet-top-2_S1, internal, generate
 22,  42,   1
*Surface, type=ELEMENT, name=Polymer-rivet-top-2
_Polymer-rivet-top-2_S1, S1
*Elset, elset=_Polymer-rivet-bot-2_S2, internal, generate
  1,  21,   1
*Surface, type=ELEMENT, name=Polymer-rivet-bot-2
_Polymer-rivet-bot-2_S2, S2
*Elset, elset=_Polymer-rivet-3_S3, internal
 1131, 1132, 1133, 1135, 1136, 1137
*Elset, elset=_Polymer-rivet-3_S6, internal
 1131, 1132, 1133, 1135, 1136, 1137
*Elset, elset=_Polymer-rivet-3_S4, internal
 1134, 1138
*Elset, elset=_Polymer-rivet-3_S5, internal
 1134, 1138
*Surface, type=ELEMENT, name=Polymer-rivet-3
_Polymer-rivet-3_S3, S3
_Polymer-rivet-3_S6, S6
_Polymer-rivet-3_S4, S4
_Polymer-rivet-3_S5, S5
*Elset, elset=_Polymer-rivet-top-3_S1, internal, generate
 1135,  1138,     1
*Surface, type=ELEMENT, name=Polymer-rivet-top-3
_Polymer-rivet-top-3_S1, S1
*Elset, elset=_Polymer-rivet-bot-3_S2, internal, generate
 1131,  1134,     1
*Surface, type=ELEMENT, name=Polymer-rivet-bot-3
_Polymer-rivet-bot-3_S2, S2
** Section: PolySec
*Solid Section, elset=_PickedSet22, material=Polymer
,
** Section: PolySec
*Solid Section, elset=_PickedSet12, material=Polymer
,
** Section: PolySec
*Solid Section, elset=PolySet, material=Polymer
,
** Section: PolySec
*Solid Section, elset=_PickedSet17, material=Polymer
,
** Section: PolySec
*Solid Section, elset=_PickedSet27, material=Polymer
,
*End Part
**  
**
** ASSEMBLY
**
*Assembly, name=Assembly
**  
*Instance, name=Polymer-1, part=Polymer
*End Instance
**  
*Instance, name=Battery-1, part=Battery
         10.,          10.,           0.
*End Instance
**  
*Instance, name=CF-1, part=CF
          0.,           0.,         -0.4
*End Instance
**  
*Instance, name=CF-2, part=CF
          0.,           0.,          5.4
*End Instance
**  
*Node
      1,          55.,          55.,    5.4000001
*Nset, nset=VerticalSupport, instance=CF-1
   3,   4,   7,   8,  62,  63,  64,  65,  66,  67,  68,  69,  70,  71,  72,  73
  74,  75,  76,  77,  78,  79,  80,  81,  82,  83,  84,  85,  86,  87,  88,  89
  90,  91,  92,  93,  94,  95,  96,  97, 170, 171, 172, 173, 174, 175, 176, 177
 178, 179, 180, 181, 182, 183, 184, 185, 186, 187, 188, 189, 190, 191, 192, 193
 194, 195, 196, 197, 198, 199, 200, 201, 202, 203, 204, 205
*Elset, elset=VerticalSupport, instance=CF-1
  630,  631,  632,  633,  634,  635,  636,  637,  638,  639,  640,  641,  642,  643,  644,  645
  646,  647,  648,  649,  650,  651,  652,  653,  654,  655,  656,  657,  658,  659,  660,  661
  662,  663,  664,  665,  666, 1370, 1371, 1372, 1373, 1374, 1375, 1376, 1377, 1378, 1379, 1380
 1381, 1382, 1383, 1384, 1385, 1386, 1387, 1388, 1389, 1390, 1391, 1392, 1393, 1394, 1395, 1396
 1397, 1398, 1399, 1400, 1401, 1402, 1403, 1404, 1405, 1406
*Nset, nset=XDirSupport, instance=CF-1
 3,
*Nset, nset=YDirSupport, instance=CF-1
 7,
*Nset, nset=rigid_loading_set, instance=CF-2
   1,   2,   5,   6,   9,  10,  11,  12,  13,  14,  15,  16,  17,  18,  19,  20
  21,  22,  23,  24,  25,  26,  27,  28,  29,  30,  31,  32,  33,  34,  35,  36
  37,  38,  39,  40,  41,  42,  43,  44, 115, 116, 117, 118, 119, 120, 121, 122
 123, 124, 125, 126, 127, 128, 129, 130, 131, 132, 133, 134, 135, 136, 137, 138
 139, 140, 141, 142, 143, 144, 145, 146, 147, 148, 149, 150, 151, 152, 835, 836
 837, 838, 839, 840, 841, 842, 843, 844, 845, 846, 847, 848, 849, 850, 851, 852
 853, 854, 855, 856, 857, 858, 859, 860, 861, 862, 863, 864, 865, 866, 867, 868
 869, 870
*Elset, elset=rigid_loading_set, instance=CF-2, generate
 667,  740,    1
*Nset, nset=_PickedSet14, internal
 1,
*Elset, elset=__PickedSurf15_SPOS, internal, instance=CF-2, generate
 667,  740,    1
*Surface, type=ELEMENT, name=_PickedSurf15, internal
__PickedSurf15_SPOS, SPOS
** Constraint: BatPoly-0
*Tie, name=BatPoly-0, adjust=no, position tolerance=1.
Battery-1.Battery-rivet-0, Polymer-1.Polymer-rivet-0
** Constraint: BatPoly-1
*Tie, name=BatPoly-1, adjust=no, position tolerance=1.
Battery-1.Battery-rivet-1, Polymer-1.Polymer-rivet-1
** Constraint: BatPoly-2
*Tie, name=BatPoly-2, adjust=no, position tolerance=1.
Battery-1.Battery-rivet-2, Polymer-1.Polymer-rivet-2
** Constraint: BatPoly-3
*Tie, name=BatPoly-3, adjust=no, position tolerance=1.
Battery-1.Battery-rivet-3, Polymer-1.Polymer-rivet-3
** Constraint: CF1Poly
*Tie, name=CF1Poly, adjust=no, position tolerance=1.
Polymer-1.PolyBot, CF-1.CFtop
** Constraint: CF1Poly-Rivet-0
*Tie, name=CF1Poly-Rivet-0, adjust=no, position tolerance=1.
Polymer-1.Polymer-rivet-bot-0, CF-1.CFtop
** Constraint: CF1Poly-Rivet-1
*Tie, name=CF1Poly-Rivet-1, adjust=no, position tolerance=1.
Polymer-1.Polymer-rivet-bot-1, CF-1.CFtop
** Constraint: CF1Poly-Rivet-2
*Tie, name=CF1Poly-Rivet-2, adjust=no, position tolerance=1.
Polymer-1.Polymer-rivet-bot-2, CF-1.CFtop
** Constraint: CF1Poly-Rivet-3
*Tie, name=CF1Poly-Rivet-3, adjust=no, position tolerance=1.
Polymer-1.Polymer-rivet-bot-3, CF-1.CFtop
** Constraint: CF2Poly
*Tie, name=CF2Poly, adjust=no, position tolerance=1.
Polymer-1.PolyTop, CF-2.CFbot
** Constraint: CF2Poly-Rivet-0
*Tie, name=CF2Poly-Rivet-0, adjust=no, position tolerance=1.
Polymer-1.Polymer-rivet-top-0, CF-2.CFbot
** Constraint: CF2Poly-Rivet-1
*Tie, name=CF2Poly-Rivet-1, adjust=no, position tolerance=1.
Polymer-1.Polymer-rivet-top-1, CF-2.CFbot
** Constraint: CF2Poly-Rivet-2
*Tie, name=CF2Poly-Rivet-2, adjust=no, position tolerance=1.
Polymer-1.Polymer-rivet-top-2, CF-2.CFbot
** Constraint: CF2Poly-Rivet-3
*Tie, name=CF2Poly-Rivet-3, adjust=no, position tolerance=1.
Polymer-1.Polymer-rivet-top-3, CF-2.CFbot
** Constraint: LoadingRigidBody
*Rigid Body, ref node=_PickedSet14, tie nset=rigid_loading_set
*End Assembly
** 
** MATERIALS
** 
*Material, name=BatOrtho
*Elastic, type=ENGINEERING CONSTANTS
1090., 109., 500., 0.15, 0.15, 0.15, 474., 474.
 474.,
*Material, name=CF_material
*Elastic, type=ENGINEERING CONSTANTS
30420.,  4023.,  4023.,   0.29,   0.29, 0.3928,  2081.,  2081.
  1440.,
*Material, name=Polymer
*Elastic
500., 0.3
** 
** INTERACTION PROPERTIES
** 
*Surface Interaction, name=NormCont
1.,
*Friction, slip tolerance=0.005
 0.3,
*Surface Behavior, pressure-overclosure=HARD
** 
** INTERACTIONS
** 
** Interaction: CF1Bat
*Contact Pair, interaction=NormCont, type=SURFACE TO SURFACE
Battery-1.BatBot, CF-1.CFtop
** Interaction: CF2Bat
*Contact Pair, interaction=NormCont, type=SURFACE TO SURFACE
Battery-1.BatTop, CF-2.CFbot
** ----------------------------------------------------------------
** 
** STEP: Loading
** 
*Step, name=Loading, nlgeom=NO
*Static
1., 1., 1e-05, 1.
** 
** BOUNDARY CONDITIONS
** 
** Name: VerticalSupport Type: Displacement/Rotation
*Boundary
VerticalSupport, 3, 3
** Name: XDirSupport Type: Displacement/Rotation
*Boundary
XDirSupport, 1, 1
** Name: YDirSupport Type: Displacement/Rotation
*Boundary
YDirSupport, 2, 2
** 
** LOADS
** 
** Name: Load-1   Type: Pressure
*Dsload
_PickedSurf15, P, 0.181818
** 
** OUTPUT REQUESTS
** 
*Restart, write, frequency=0
** 
** FIELD OUTPUT: F-Output-1
** 
*Output, field
*Node Output
U, UR, UT
*Element Output, directions=YES
EVOL, 
** 
** HISTORY OUTPUT: H-Output-1
** 
*Output, history, variable=PRESELECT
*End Step
