 Abaqus/Standard 3DEXPERIENCE R2019x                  DATE 29-May-2019 TIME 17:55:32
 SUMMARY OF JOB INFORMATION:
 STEP  INC ATT SEVERE EQUIL TOTAL  TOTAL      STEP       INC OF       DOF    IF
               DISCON ITERS ITERS  TIME/    TIME/LPF    TIME/LPF    MONITOR RIKS
               ITERS               FREQ
   1     1   1U   18    16    34  0.000      0.000      1.000     
   1     1   2U   19    16    35  0.000      0.000      0.2500    
   1     1   3U   15     1    16  0.000      0.000      0.06250   
   1     1   4    16     1    17  0.0156     0.0156     0.01563   
   1     2   1U    4     3     7  0.0156     0.0156     0.01563   
   1     2   2U    4     4     8  0.0156     0.0156     0.003906  
   1     2   3U    3     4     7  0.0156     0.0156     0.0009766 
   1     2   4U    2     7     9  0.0156     0.0156     0.0002441 
   1     2   5U    1     4     5  0.0156     0.0156     6.104e-05 
                          
 THE ANALYSIS HAS NOT BEEN COMPLETED
