1

   Abaqus 3DEXPERIENCE R2019x                                  Date 29-May-2019   Time 15:58:19
   For demonstration or benchmarking only under agreement with Dassault Systemes or its subsidiary.

                                                                                 
                                                                                 
 STEP    1     INCREMENT     1     STEP TIME    0.00    


                        S T E P       1     S T A T I C   A N A L Y S I S


                                                                                          

     AUTOMATIC TIME CONTROL WITH -
          A SUGGESTED INITIAL TIME INCREMENT OF                 1.00    
          AND A TOTAL TIME PERIOD OF                            1.00    
          THE MINIMUM TIME INCREMENT ALLOWED IS                1.000E-05
          THE MAXIMUM TIME INCREMENT ALLOWED IS                 1.00    

     LINEAR EQUATION SOLVER TYPE         DIRECT SPARSE

 CONVERGENCE TOLERANCE PARAMETERS FOR FORCE    
     CRITERION FOR RESIDUAL FORCE     FOR A NONLINEAR PROBLEM          5.000E-03
     CRITERION FOR DISP.    CORRECTION IN A NONLINEAR PROBLEM          1.000E-02
     INITIAL VALUE OF TIME AVERAGE FORCE                               1.000E-02
     AVERAGE FORCE     IS TIME AVERAGE FORCE    
     ALTERNATE CRIT. FOR RESIDUAL FORCE     FOR A NONLINEAR PROBLEM    2.000E-02
     CRITERION FOR ZERO FORCE     RELATIVE TO TIME AVRG. FORCE         1.000E-05
     CRITERION FOR RESIDUAL FORCE     WHEN THERE IS ZERO FLUX          1.000E-05
     CRITERION FOR DISP.    CORRECTION WHEN THERE IS ZERO FLUX         1.000E-03
     CRITERION FOR RESIDUAL FORCE     FOR A LINEAR INCREMENT           1.000E-08
     FIELD CONVERSION RATIO                                             1.00    
     CRITERION FOR ZERO FORCE     REL. TO TIME AVRG. MAX. FORCE        1.000E-05
     CRITERION FOR ZERO DISP.    RELATIVE TO CHARACTERISTIC LENGTH     1.000E-08

 CONVERGENCE TOLERANCE PARAMETERS FOR MOMENT   
     CRITERION FOR RESIDUAL MOMENT    FOR A NONLINEAR PROBLEM          5.000E-03
     CRITERION FOR ROTATION CORRECTION IN A NONLINEAR PROBLEM          1.000E-02
     INITIAL VALUE OF TIME AVERAGE MOMENT                              1.000E-02
     AVERAGE MOMENT    IS TIME AVERAGE MOMENT   
     ALTERNATE CRIT. FOR RESIDUAL MOMENT    FOR A NONLINEAR PROBLEM    2.000E-02
     CRITERION FOR ZERO MOMENT    RELATIVE TO TIME AVRG. MOMENT        1.000E-05
     CRITERION FOR RESIDUAL MOMENT    WHEN THERE IS ZERO FLUX          1.000E-05
     CRITERION FOR ROTATION CORRECTION WHEN THERE IS ZERO FLUX         1.000E-03
     CRITERION FOR RESIDUAL MOMENT    FOR A LINEAR INCREMENT           1.000E-08
     FIELD CONVERSION RATIO                                             1.00    
     CRITERION FOR ZERO MOMENT    REL. TO TIME AVRG. MAX. MOMENT       1.000E-05

     VOLUMETRIC STRAIN COMPATIBILITY TOLERANCE FOR HYBRID SOLIDS       1.000E-05
     AXIAL STRAIN COMPATIBILITY TOLERANCE FOR HYBRID BEAMS             1.000E-05
     TRANS. SHEAR STRAIN COMPATIBILITY TOLERANCE FOR HYBRID BEAMS      1.000E-05
     SOFT CONTACT CONSTRAINT COMPATIBILITY TOLERANCE FOR P>P0          5.000E-03
     SOFT CONTACT CONSTRAINT COMPATIBILITY TOLERANCE FOR P=0.0         0.100    
     CONTACT FORCE ERROR TOLERANCE FOR CONVERT SDI=YES                 1.00    
     DISPLACEMENT COMPATIBILITY TOLERANCE FOR DCOUP ELEMENTS           1.000E-05
     ROTATION COMPATIBILITY TOLERANCE FOR DCOUP ELEMENTS               1.000E-05

 EQUILIBRIUM WILL BE CHECKED FOR SEVERE DISCONTINUITY ITERATIONS

 TIME INCREMENTATION CONTROL PARAMETERS:
     FIRST EQUILIBRIUM ITERATION FOR CONSECUTIVE DIVERGENCE CHECK              4
     EQUILIBRIUM ITERATION AT WHICH LOG. CONVERGENCE RATE CHECK BEGINS         8
     EQUILIBRIUM ITERATION AFTER WHICH ALTERNATE RESIDUAL IS USED              9
     MAXIMUM EQUILIBRIUM ITERATIONS ALLOWED                                   16
     EQUILIBRIUM ITERATION COUNT FOR CUT-BACK IN NEXT INCREMENT               10
     MAXIMUM EQUILIB. ITERS IN TWO INCREMENTS FOR TIME INCREMENT INCREASE      4
     MAXIMUM ITERATIONS FOR SEVERE DISCONTINUITIES                            50
     MAXIMUM ATTEMPTS ALLOWED IN AN INCREMENT                                  5
     MAXIMUM DISCON. ITERS IN TWO INCREMENTS FOR TIME INCREMENT INCREASE      50
     MAXIMUM CONTACT AUGMENTATIONS FOR *SURFACE BEHAVIOR,AUGMENTED LAGRANGE   50
     CUT-BACK FACTOR AFTER DIVERGENCE                                 0.2500    
     CUT-BACK FACTOR FOR TOO SLOW CONVERGENCE                         0.5000    
     CUT-BACK FACTOR AFTER TOO MANY EQUILIBRIUM ITERATIONS            0.7500    
     CUT-BACK FACTOR AFTER TOO MANY SEVERE DISCONTINUITY ITERATIONS   0.2500    
     CUT-BACK FACTOR AFTER PROBLEMS IN ELEMENT ASSEMBLY               0.2500    
     INCREASE FACTOR AFTER TWO INCREMENTS THAT CONVERGE QUICKLY        1.500    
     MAX. TIME INCREMENT INCREASE FACTOR ALLOWED                       1.500    
     MAX. TIME INCREMENT INCREASE FACTOR ALLOWED (DYNAMICS)            1.250    
     MAX. TIME INCREMENT INCREASE FACTOR ALLOWED (DIFFUSION)           2.000    
     MINIMUM TIME INCREMENT RATIO FOR EXTRAPOLATION TO OCCUR          0.1000    
     MAX. RATIO OF TIME INCREMENT TO STABILITY LIMIT                   1.000    
     FRACTION OF STABILITY LIMIT FOR NEW TIME INCREMENT               0.9500    
     TIME INCREMENT INCREASE FACTOR BEFORE A TIME POINT                1.000    

 CONTACT CONTROLS APPLIED TO ALL CONTACT PAIRS:
     GLOBAL STABILIZATION CONTROL IS NOT USED
     RELATIVE PENETRATION TOLERANCE FOR AUGMENTED LAGRANGE CONTACT:
          FINITE-SLIDING SURFACE-TO-SURFACE                            5.000E-02
          OTHERWISE                                                    1.000E-03

          PRINT OF INCREMENT NUMBER, TIME, ETC., EVERY    1  INCREMENTS

     THE MAXIMUM NUMBER OF INCREMENTS IN THIS STEP IS                     100

          UNSYMMETRIC MATRIX STORAGE AND SOLUTION WILL BE USED

     LINEAR EXTRAPOLATION WILL BE USED

     CHARACTERISTIC ELEMENT LENGTH      2.69    

     DETAILS REGARDING ACTUAL SOLUTION WAVEFRONT REQUESTED

     DETAILED OUTPUT OF DIAGNOSTICS TO DATABASE REQUESTED

     PRINT OF INCREMENT NUMBER, TIME, ETC., TO THE MESSAGE FILE EVERY     1  INCREMENTS

     ELEMENT OPERATIONS WILL BE CARRIED OUT IN PARALLEL USING   6 PROCESSORS

     PARALLEL CONTACT TRACKING ENABLED


     COLLECTING MODEL CONSTRAINT INFORMATION FOR OVERCONSTRAINT CHECKS

     COLLECTING STEP CONSTRAINT INFORMATION FOR OVERCONSTRAINT CHECKS
  
     ASYNCHRONOUS OUTPUT DATABASE FRAME FLUSH STARTED
  


  INCREMENT     1 STARTS. ATTEMPT NUMBER  1, TIME INCREMENT   1.00    
  
     ASYNCHRONOUS TRACKING ELEMENT LOOP STARTED
  
 
     INITIAL ELEMENT LOAD BALANCE
            PROCESS    1   THREAD     NUMBER OF ELEMENTS
                              1            2145
                              2            3072
                              3            2816
                              4            3072
                              5            2816
                              6            2816

  NUMBER OF EQUATIONS =     31131     NUMBER OF RHS =    1
  NUMBER OF FLOATING PT. OPERATIONS =  1.08E+11

  USING THE DIRECT SOLVER WITH   6 PROCESSORS

     CHECK POINT   START OF SOLVER    

     CHECK POINT  END OF SOLVER       

       ELAPSED USER TIME (SEC)      =   12.300    
       ELAPSED SYSTEM TIME (SEC)    =  0.10000    
       ELAPSED TOTAL CPU TIME (SEC) =   12.400    
       ELAPSED WALLCLOCK TIME (SEC) =          2
 

 ***WARNING: SOLVER PROBLEM. NUMERICAL SINGULARITY WHEN PROCESSING NODE 
             ASSEMBLY.1 D.O.F. 6 RATIO = 559.979E+12  .
  
     ASYNCHRONOUS TRACKING ELEMENT LOOP STARTED
  

                 1250 SEVERE DISCONTINUITIES OCCURRED DURING THIS ITERATION.
                 1250 POINTS CHANGED FROM CLOSED TO OPEN

               CONVERGENCE CHECKS FOR SEVERE DISCONTINUITY ITERATION     1

   MAX. PENETRATION ERROR 33.9919E-06  AT NODE BATTERY-1.662 OF CONTACT PAIR 
   (ASSEMBLY_BATTERY-1_BATBOT,ASSEMBLY_CF-1_CFTOP)
   MAX. CONTACT FORCE ERROR -1.57389     AT NODE BATTERY-1.2959 OF CONTACT PAIR 
   (ASSEMBLY_BATTERY-1_BATTOP,ASSEMBLY_CF-2_CFBOT)
          THE ESTIMATED CONTACT FORCE ERROR IS OUTSIDE OF CONVERGENCE TOLERANCES.

 AVERAGE FORCE                      0.175       TIME AVG. FORCE       0.175    
 LARGEST RESIDUAL FORCE             -6.17       AT NODE       1186   DOF  1
   INSTANCE: BATTERY-1                                                                       
 LARGEST INCREMENT OF DISP.        -0.141       AT NODE        563   DOF  3
   INSTANCE: POLYMER-1                                                                       
 LARGEST CORRECTION TO DISP.       -0.141       AT NODE        563   DOF  3
   INSTANCE: POLYMER-1                                                                       
          FORCE     EQUILIBRIUM NOT ACHIEVED WITHIN TOLERANCE.

 AVERAGE MOMENT                     5.832E-02   TIME AVG. MOMENT      5.832E-02
 LARGEST RESIDUAL MOMENT            -20.1       AT NODE          1   DOF  4
   INSTANCE:                                                                                 
 LARGEST INCREMENT OF ROTATION      4.540E-03   AT NODE          3   DOF  5
   INSTANCE: CF-1                                                                            
 LARGEST CORRECTION TO ROTATION     4.540E-03   AT NODE          3   DOF  5
   INSTANCE: CF-1                                                                            
          MOMENT    EQUILIBRIUM NOT ACHIEVED WITHIN TOLERANCE.

  NUMBER OF EQUATIONS =     31131     NUMBER OF RHS =    1
  NUMBER OF FLOATING PT. OPERATIONS =  1.01E+11

  USING THE DIRECT SOLVER WITH   6 PROCESSORS

     CHECK POINT   START OF SOLVER    

     CHECK POINT  END OF SOLVER       

       ELAPSED USER TIME (SEC)      =   11.600    
       ELAPSED SYSTEM TIME (SEC)    =   0.0000    
       ELAPSED TOTAL CPU TIME (SEC) =   11.600    
       ELAPSED WALLCLOCK TIME (SEC) =          2
 

 ***WARNING: SOLVER PROBLEM. NUMERICAL SINGULARITY WHEN PROCESSING NODE 
             ASSEMBLY.1 D.O.F. 6 RATIO = 82.1034E+09 .
  
     ASYNCHRONOUS TRACKING ELEMENT LOOP STARTED
  

                 1604 SEVERE DISCONTINUITIES OCCURRED DURING THIS ITERATION.
                  543 POINTS CHANGED FROM OPEN TO CLOSED
                  648 POINTS CHANGED FROM CLOSED TO OPEN
                  413 POINTS CHANGED FROM STICKING TO SLIPPING

               CONVERGENCE CHECKS FOR SEVERE DISCONTINUITY ITERATION     2

   MAX. PENETRATION ERROR 2.72694E-03 AT NODE BATTERY-1.2783 OF CONTACT PAIR 
   (ASSEMBLY_BATTERY-1_BATTOP,ASSEMBLY_CF-2_CFBOT)
   MAX. CONTACT FORCE ERROR 2.18670     AT NODE BATTERY-1.421 OF CONTACT PAIR 
   (ASSEMBLY_BATTERY-1_BATBOT,ASSEMBLY_CF-1_CFTOP)
          THE ESTIMATED CONTACT FORCE ERROR IS OUTSIDE OF CONVERGENCE TOLERANCES.

 AVERAGE FORCE                      0.203       TIME AVG. FORCE       0.203    
 LARGEST RESIDUAL FORCE              18.1       AT NODE          1   DOF  3
   INSTANCE:                                                                                 
 LARGEST INCREMENT OF DISP.          1.74       AT NODE         94   DOF  2
   INSTANCE: CF-1                                                                            
 LARGEST CORRECTION TO DISP.         1.66       AT NODE         94   DOF  2
   INSTANCE: CF-1                                                                            
          FORCE     EQUILIBRIUM NOT ACHIEVED WITHIN TOLERANCE.

 AVERAGE MOMENT                     0.128       TIME AVG. MOMENT      0.128    
 LARGEST RESIDUAL MOMENT             95.5       AT NODE          1   DOF  4
   INSTANCE:                                                                                 
 LARGEST INCREMENT OF ROTATION     -1.627E-02   AT NODE         94   DOF  6
   INSTANCE: CF-1                                                                            
 LARGEST CORRECTION TO ROTATION    -1.550E-02   AT NODE         94   DOF  6
   INSTANCE: CF-1                                                                            
          MOMENT    EQUILIBRIUM NOT ACHIEVED WITHIN TOLERANCE.

  NUMBER OF EQUATIONS =     31131     NUMBER OF RHS =    1
  NUMBER OF FLOATING PT. OPERATIONS =  9.85E+10

  USING THE DIRECT SOLVER WITH   6 PROCESSORS

     CHECK POINT   START OF SOLVER    

     CHECK POINT  END OF SOLVER       

       ELAPSED USER TIME (SEC)      =   11.700    
       ELAPSED SYSTEM TIME (SEC)    =   0.0000    
       ELAPSED TOTAL CPU TIME (SEC) =   11.700    
       ELAPSED WALLCLOCK TIME (SEC) =          2
 

 ***WARNING: SOLVER PROBLEM. NUMERICAL SINGULARITY WHEN PROCESSING NODE 
             ASSEMBLY.1 D.O.F. 6 RATIO = 11.0078E+09 .
  
     ASYNCHRONOUS TRACKING ELEMENT LOOP STARTED
  

                  867 SEVERE DISCONTINUITIES OCCURRED DURING THIS ITERATION.
                  222 POINTS CHANGED FROM OPEN TO CLOSED
                  512 POINTS CHANGED FROM CLOSED TO OPEN
                  133 POINTS CHANGED FROM STICKING TO SLIPPING

               CONVERGENCE CHECKS FOR SEVERE DISCONTINUITY ITERATION     3

   MAX. PENETRATION ERROR 433.414E-06   AT NODE BATTERY-1.521 OF CONTACT PAIR 
   (ASSEMBLY_BATTERY-1_BATBOT,ASSEMBLY_CF-1_CFTOP)
   MAX. CONTACT FORCE ERROR -1.61683     AT NODE BATTERY-1.2717 OF CONTACT PAIR 
   (ASSEMBLY_BATTERY-1_BATTOP,ASSEMBLY_CF-2_CFBOT)
          THE ESTIMATED CONTACT FORCE ERROR IS OUTSIDE OF CONVERGENCE TOLERANCES.

 AVERAGE FORCE                      0.205       TIME AVG. FORCE       0.205    
 LARGEST RESIDUAL FORCE              4.35       AT NODE          1   DOF  3
   INSTANCE:                                                                                 
 LARGEST INCREMENT OF DISP.         0.264       AT NODE          7   DOF  1
   INSTANCE: CF-1                                                                            
 LARGEST CORRECTION TO DISP.         1.97       AT NODE          7   DOF  1
   INSTANCE: CF-1                                                                            
          FORCE     EQUILIBRIUM NOT ACHIEVED WITHIN TOLERANCE.

 AVERAGE MOMENT                     0.135       TIME AVG. MOMENT      0.135    
 LARGEST RESIDUAL MOMENT             29.1       AT NODE          1   DOF  4
   INSTANCE:                                                                                 
 LARGEST INCREMENT OF ROTATION      8.233E-03   AT NODE          3   DOF  5
   INSTANCE: CF-1                                                                            
 LARGEST CORRECTION TO ROTATION     1.796E-02   AT NODE         66   DOF  6
   INSTANCE: CF-1                                                                            
          MOMENT    EQUILIBRIUM NOT ACHIEVED WITHIN TOLERANCE.

  NUMBER OF EQUATIONS =     31131     NUMBER OF RHS =    1
  NUMBER OF FLOATING PT. OPERATIONS =  9.26E+10

  USING THE DIRECT SOLVER WITH   6 PROCESSORS

     CHECK POINT   START OF SOLVER    

     CHECK POINT  END OF SOLVER       

       ELAPSED USER TIME (SEC)      =   10.800    
       ELAPSED SYSTEM TIME (SEC)    =   0.0000    
       ELAPSED TOTAL CPU TIME (SEC) =   10.800    
       ELAPSED WALLCLOCK TIME (SEC) =          2
 

 ***WARNING: SOLVER PROBLEM. NUMERICAL SINGULARITY WHEN PROCESSING NODE 
             ASSEMBLY.1 D.O.F. 6 RATIO = 9.78173E+09.
  
     ASYNCHRONOUS TRACKING ELEMENT LOOP STARTED
  

                  527 SEVERE DISCONTINUITIES OCCURRED DURING THIS ITERATION.
                  136 POINTS CHANGED FROM OPEN TO CLOSED
                  323 POINTS CHANGED FROM CLOSED TO OPEN
                   68 POINTS CHANGED FROM STICKING TO SLIPPING

               CONVERGENCE CHECKS FOR SEVERE DISCONTINUITY ITERATION     4

   MAX. PENETRATION ERROR 321.125E-06   AT NODE BATTERY-1.3582 OF CONTACT PAIR 
   (ASSEMBLY_BATTERY-1_BATTOP,ASSEMBLY_CF-2_CFBOT)
   MAX. CONTACT FORCE ERROR -1.12921     AT NODE BATTERY-1.3383 OF CONTACT PAIR 
   (ASSEMBLY_BATTERY-1_BATTOP,ASSEMBLY_CF-2_CFBOT)
          THE ESTIMATED CONTACT FORCE ERROR IS OUTSIDE OF CONVERGENCE TOLERANCES.

 AVERAGE FORCE                      0.204       TIME AVG. FORCE       0.204    
 LARGEST RESIDUAL FORCE            -0.660       AT NODE       3383   DOF  3
   INSTANCE: BATTERY-1                                                                       
 LARGEST INCREMENT OF DISP.        -0.245       AT NODE        563   DOF  3
   INSTANCE: POLYMER-1                                                                       
 LARGEST CORRECTION TO DISP.        0.200       AT NODE        209   DOF  2
   INSTANCE: POLYMER-1                                                                       
          FORCE     EQUILIBRIUM NOT ACHIEVED WITHIN TOLERANCE.

 AVERAGE MOMENT                     0.137       TIME AVG. MOMENT      0.137    
 LARGEST RESIDUAL MOMENT             2.61       AT NODE          1   DOF  4
   INSTANCE:                                                                                 
 LARGEST INCREMENT OF ROTATION      8.467E-03   AT NODE        598   DOF  5
   INSTANCE: CF-2                                                                            
 LARGEST CORRECTION TO ROTATION    -1.821E-03   AT NODE         93   DOF  6
   INSTANCE: CF-1                                                                            
          MOMENT    EQUILIBRIUM NOT ACHIEVED WITHIN TOLERANCE.

  NUMBER OF EQUATIONS =     31131     NUMBER OF RHS =    1
  NUMBER OF FLOATING PT. OPERATIONS =  8.78E+10

  USING THE DIRECT SOLVER WITH   6 PROCESSORS

     CHECK POINT   START OF SOLVER    

     CHECK POINT  END OF SOLVER       

       ELAPSED USER TIME (SEC)      =   10.200    
       ELAPSED SYSTEM TIME (SEC)    =  0.10000    
       ELAPSED TOTAL CPU TIME (SEC) =   10.300    
       ELAPSED WALLCLOCK TIME (SEC) =          2
 

 ***WARNING: SOLVER PROBLEM. NUMERICAL SINGULARITY WHEN PROCESSING NODE 
             ASSEMBLY.1 D.O.F. 6 RATIO = 10.4977E+09 .
  
     ASYNCHRONOUS TRACKING ELEMENT LOOP STARTED
  

                  455 SEVERE DISCONTINUITIES OCCURRED DURING THIS ITERATION.
                  150 POINTS CHANGED FROM OPEN TO CLOSED
                  196 POINTS CHANGED FROM CLOSED TO OPEN
                  109 POINTS CHANGED FROM STICKING TO SLIPPING

               CONVERGENCE CHECKS FOR SEVERE DISCONTINUITY ITERATION     5

   MAX. PENETRATION ERROR 449.235E-06   AT NODE BATTERY-1.4028 OF CONTACT PAIR 
   (ASSEMBLY_BATTERY-1_BATTOP,ASSEMBLY_CF-2_CFBOT)
   MAX. CONTACT FORCE ERROR -814.077E-03   AT NODE BATTERY-1.3576 OF CONTACT 
   PAIR (ASSEMBLY_BATTERY-1_BATTOP,ASSEMBLY_CF-2_CFBOT)
          THE ESTIMATED CONTACT FORCE ERROR IS OUTSIDE OF CONVERGENCE TOLERANCES.

 AVERAGE FORCE                      0.204       TIME AVG. FORCE       0.204    
 LARGEST RESIDUAL FORCE             0.534       AT NODE        533   DOF  3
   INSTANCE: CF-2                                                                            
 LARGEST INCREMENT OF DISP.        -0.246       AT NODE        563   DOF  3
   INSTANCE: POLYMER-1                                                                       
 LARGEST CORRECTION TO DISP.        7.015E-02   AT NODE         94   DOF  2
   INSTANCE: CF-1                                                                            
          FORCE     EQUILIBRIUM NOT ACHIEVED WITHIN TOLERANCE.

 AVERAGE MOMENT                     0.138       TIME AVG. MOMENT      0.138    
 LARGEST RESIDUAL MOMENT            3.577E-02   AT NODE          1   DOF  4
   INSTANCE:                                                                                 
 LARGEST INCREMENT OF ROTATION      8.637E-03   AT NODE        562   DOF  5
   INSTANCE: CF-2                                                                            
 LARGEST CORRECTION TO ROTATION    -6.404E-04   AT NODE         93   DOF  6
   INSTANCE: CF-1                                                                            
          MOMENT    EQUILIBRIUM NOT ACHIEVED WITHIN TOLERANCE.

  NUMBER OF EQUATIONS =     31131     NUMBER OF RHS =    1
  NUMBER OF FLOATING PT. OPERATIONS =  8.48E+10

  USING THE DIRECT SOLVER WITH   6 PROCESSORS

     CHECK POINT   START OF SOLVER    

     CHECK POINT  END OF SOLVER       

       ELAPSED USER TIME (SEC)      =   9.8000    
       ELAPSED SYSTEM TIME (SEC)    =  0.10000    
       ELAPSED TOTAL CPU TIME (SEC) =   9.9000    
       ELAPSED WALLCLOCK TIME (SEC) =          2
 

 ***WARNING: SOLVER PROBLEM. NUMERICAL SINGULARITY WHEN PROCESSING NODE 
             ASSEMBLY.1 D.O.F. 6 RATIO = 11.4503E+09 .
  
     ASYNCHRONOUS TRACKING ELEMENT LOOP STARTED
  

                  390 SEVERE DISCONTINUITIES OCCURRED DURING THIS ITERATION.
                  124 POINTS CHANGED FROM OPEN TO CLOSED
                  185 POINTS CHANGED FROM CLOSED TO OPEN
                   81 POINTS CHANGED FROM STICKING TO SLIPPING

               CONVERGENCE CHECKS FOR SEVERE DISCONTINUITY ITERATION     6

   MAX. PENETRATION ERROR 552.356E-06   AT NODE BATTERY-1.3747 OF CONTACT PAIR 
   (ASSEMBLY_BATTERY-1_BATTOP,ASSEMBLY_CF-2_CFBOT)
   MAX. CONTACT FORCE ERROR 1.06550     AT NODE BATTERY-1.3747 OF CONTACT PAIR 
   (ASSEMBLY_BATTERY-1_BATTOP,ASSEMBLY_CF-2_CFBOT)
          THE ESTIMATED CONTACT FORCE ERROR IS OUTSIDE OF CONVERGENCE TOLERANCES.

 AVERAGE FORCE                      0.203       TIME AVG. FORCE       0.203    
 LARGEST RESIDUAL FORCE             0.558       AT NODE        488   DOF  3
   INSTANCE: CF-2                                                                            
 LARGEST INCREMENT OF DISP.        -0.246       AT NODE        563   DOF  3
   INSTANCE: POLYMER-1                                                                       
 LARGEST CORRECTION TO DISP.        1.235E-02   AT NODE         94   DOF  2
   INSTANCE: CF-1                                                                            
          FORCE     EQUILIBRIUM NOT ACHIEVED WITHIN TOLERANCE.

 AVERAGE MOMENT                     0.139       TIME AVG. MOMENT      0.139    
 LARGEST RESIDUAL MOMENT           -2.717E-04   AT NODE          1   DOF  4
   INSTANCE:                                                                                 
 LARGEST INCREMENT OF ROTATION      8.818E-03   AT NODE        561   DOF  5
   INSTANCE: CF-2                                                                            
 LARGEST CORRECTION TO ROTATION     6.400E-04   AT NODE        491   DOF  5
   INSTANCE: CF-2                                                                            
 ESTIMATE OF ROTATION CORRECTION   -4.862E-06
 MOMENT    EQUILIB. ACCEPTED BASED ON SMALL RESIDUAL AND ESTIMATED CORRECTION

  NUMBER OF EQUATIONS =     31131     NUMBER OF RHS =    1
  NUMBER OF FLOATING PT. OPERATIONS =  8.19E+10

  USING THE DIRECT SOLVER WITH   6 PROCESSORS

     CHECK POINT   START OF SOLVER    

     CHECK POINT  END OF SOLVER       

       ELAPSED USER TIME (SEC)      =   9.6000    
       ELAPSED SYSTEM TIME (SEC)    =   0.0000    
       ELAPSED TOTAL CPU TIME (SEC) =   9.6000    
       ELAPSED WALLCLOCK TIME (SEC) =          1
 

 ***WARNING: SOLVER PROBLEM. NUMERICAL SINGULARITY WHEN PROCESSING NODE 
             ASSEMBLY.1 D.O.F. 6 RATIO = 11.8992E+09 .
  
     ASYNCHRONOUS TRACKING ELEMENT LOOP STARTED
  

                  306 SEVERE DISCONTINUITIES OCCURRED DURING THIS ITERATION.
                  115 POINTS CHANGED FROM OPEN TO CLOSED
                  143 POINTS CHANGED FROM CLOSED TO OPEN
                   48 POINTS CHANGED FROM STICKING TO SLIPPING

               CONVERGENCE CHECKS FOR SEVERE DISCONTINUITY ITERATION     7

   MAX. PENETRATION ERROR 324.024E-06   AT NODE BATTERY-1.3760 OF CONTACT PAIR 
   (ASSEMBLY_BATTERY-1_BATTOP,ASSEMBLY_CF-2_CFBOT)
   MAX. CONTACT FORCE ERROR -691.417E-03   AT NODE BATTERY-1.3783 OF CONTACT 
   PAIR (ASSEMBLY_BATTERY-1_BATTOP,ASSEMBLY_CF-2_CFBOT)
          THE ESTIMATED CONTACT FORCE ERROR IS OUTSIDE OF CONVERGENCE TOLERANCES.

 AVERAGE FORCE                      0.203       TIME AVG. FORCE       0.203    
 LARGEST RESIDUAL FORCE            -0.431       AT NODE       3783   DOF  3
   INSTANCE: BATTERY-1                                                                       
 LARGEST INCREMENT OF DISP.        -0.246       AT NODE        563   DOF  3
   INSTANCE: POLYMER-1                                                                       
 LARGEST CORRECTION TO DISP.        5.055E-02   AT NODE         93   DOF  2
   INSTANCE: CF-1                                                                            
          FORCE     EQUILIBRIUM NOT ACHIEVED WITHIN TOLERANCE.

 AVERAGE MOMENT                     0.140       TIME AVG. MOMENT      0.140    
 LARGEST RESIDUAL MOMENT            5.253E-04   AT NODE          1   DOF  6
   INSTANCE:                                                                                 
 LARGEST INCREMENT OF ROTATION      8.822E-03   AT NODE        525   DOF  5
   INSTANCE: CF-2                                                                            
 LARGEST CORRECTION TO ROTATION     5.298E-04   AT NODE        484   DOF  5
   INSTANCE: CF-2                                                                            
          ROTATION CORRECTION TOO LARGE COMPARED TO ROTATION INCREMENT

  NUMBER OF EQUATIONS =     31131     NUMBER OF RHS =    1
  NUMBER OF FLOATING PT. OPERATIONS =  7.98E+10

  USING THE DIRECT SOLVER WITH   6 PROCESSORS

     CHECK POINT   START OF SOLVER    

     CHECK POINT  END OF SOLVER       

       ELAPSED USER TIME (SEC)      =   9.2000    
       ELAPSED SYSTEM TIME (SEC)    =  0.10000    
       ELAPSED TOTAL CPU TIME (SEC) =   9.3000    
       ELAPSED WALLCLOCK TIME (SEC) =          2
 

 ***WARNING: SOLVER PROBLEM. NUMERICAL SINGULARITY WHEN PROCESSING NODE 
             ASSEMBLY.1 D.O.F. 6 RATIO = 12.5452E+09 .
  
     ASYNCHRONOUS TRACKING ELEMENT LOOP STARTED
  

                  243 SEVERE DISCONTINUITIES OCCURRED DURING THIS ITERATION.
                   64 POINTS CHANGED FROM OPEN TO CLOSED
                  137 POINTS CHANGED FROM CLOSED TO OPEN
                    2 POINTS CHANGED FROM SLIPPING TO STICKING
                   40 POINTS CHANGED FROM STICKING TO SLIPPING

               CONVERGENCE CHECKS FOR SEVERE DISCONTINUITY ITERATION     8

   MAX. PENETRATION ERROR 334.152E-06   AT NODE BATTERY-1.3739 OF CONTACT PAIR 
   (ASSEMBLY_BATTERY-1_BATTOP,ASSEMBLY_CF-2_CFBOT)
   MAX. CONTACT FORCE ERROR -641.978E-03   AT NODE BATTERY-1.3888 OF CONTACT 
   PAIR (ASSEMBLY_BATTERY-1_BATTOP,ASSEMBLY_CF-2_CFBOT)
          THE ESTIMATED CONTACT FORCE ERROR IS OUTSIDE OF CONVERGENCE TOLERANCES.

 AVERAGE FORCE                      0.203       TIME AVG. FORCE       0.203    
 LARGEST RESIDUAL FORCE            -0.399       AT NODE       3787   DOF  3
   INSTANCE: BATTERY-1                                                                       
 LARGEST INCREMENT OF DISP.        -0.247       AT NODE        563   DOF  3
   INSTANCE: POLYMER-1                                                                       
 LARGEST CORRECTION TO DISP.        2.072E-02   AT NODE         94   DOF  2
   INSTANCE: CF-1                                                                            
          FORCE     EQUILIBRIUM NOT ACHIEVED WITHIN TOLERANCE.

 AVERAGE MOMENT                     0.140       TIME AVG. MOMENT      0.140    
 LARGEST RESIDUAL MOMENT            7.815E-04   AT NODE          1   DOF  6
   INSTANCE:                                                                                 
 LARGEST INCREMENT OF ROTATION      8.949E-03   AT NODE        525   DOF  5
   INSTANCE: CF-2                                                                            
 LARGEST CORRECTION TO ROTATION     5.480E-04   AT NODE        456   DOF  5
   INSTANCE: CF-2                                                                            
          MOMENT    EQUILIBRIUM NOT ACHIEVED WITHIN TOLERANCE.

  NUMBER OF EQUATIONS =     31131     NUMBER OF RHS =    1
  NUMBER OF FLOATING PT. OPERATIONS =  7.77E+10

  USING THE DIRECT SOLVER WITH   6 PROCESSORS

     CHECK POINT   START OF SOLVER    

     CHECK POINT  END OF SOLVER       

       ELAPSED USER TIME (SEC)      =   9.1000    
       ELAPSED SYSTEM TIME (SEC)    =   0.0000    
       ELAPSED TOTAL CPU TIME (SEC) =   9.1000    
       ELAPSED WALLCLOCK TIME (SEC) =          1
 

 ***WARNING: SOLVER PROBLEM. NUMERICAL SINGULARITY WHEN PROCESSING NODE 
             ASSEMBLY.1 D.O.F. 6 RATIO = 13.0144E+09 .
  
     ASYNCHRONOUS TRACKING ELEMENT LOOP STARTED
  

                  216 SEVERE DISCONTINUITIES OCCURRED DURING THIS ITERATION.
                   80 POINTS CHANGED FROM OPEN TO CLOSED
                  108 POINTS CHANGED FROM CLOSED TO OPEN
                   28 POINTS CHANGED FROM STICKING TO SLIPPING

               CONVERGENCE CHECKS FOR SEVERE DISCONTINUITY ITERATION     9

   MAX. PENETRATION ERROR 378.326E-06   AT NODE BATTERY-1.3446 OF CONTACT PAIR 
   (ASSEMBLY_BATTERY-1_BATTOP,ASSEMBLY_CF-2_CFBOT)
   MAX. CONTACT FORCE ERROR -694.918E-03   AT NODE BATTERY-1.3690 OF CONTACT 
   PAIR (ASSEMBLY_BATTERY-1_BATTOP,ASSEMBLY_CF-2_CFBOT)
          THE ESTIMATED CONTACT FORCE ERROR IS OUTSIDE OF CONVERGENCE TOLERANCES.

 AVERAGE FORCE                      0.203       TIME AVG. FORCE       0.203    
 LARGEST RESIDUAL FORCE             0.433       AT NODE        417   DOF  3
   INSTANCE: CF-2                                                                            
 LARGEST INCREMENT OF DISP.        -0.247       AT NODE        563   DOF  3
   INSTANCE: POLYMER-1                                                                       
 LARGEST CORRECTION TO DISP.        1.222E-02   AT NODE         94   DOF  2
   INSTANCE: CF-1                                                                            
          FORCE     EQUILIBRIUM NOT ACHIEVED WITHIN TOLERANCE.

 AVERAGE MOMENT                     0.141       TIME AVG. MOMENT      0.141    
 LARGEST RESIDUAL MOMENT            0.105       AT NODE          1   DOF  4
   INSTANCE:                                                                                 
 LARGEST INCREMENT OF ROTATION      8.917E-03   AT NODE        526   DOF  5
   INSTANCE: CF-2                                                                            
 LARGEST CORRECTION TO ROTATION     4.691E-04   AT NODE        417   DOF  5
   INSTANCE: CF-2                                                                            
          MOMENT    EQUILIBRIUM NOT ACHIEVED WITHIN TOLERANCE.

  NUMBER OF EQUATIONS =     31131     NUMBER OF RHS =    1
  NUMBER OF FLOATING PT. OPERATIONS =  7.63E+10

  USING THE DIRECT SOLVER WITH   6 PROCESSORS

     CHECK POINT   START OF SOLVER    

     CHECK POINT  END OF SOLVER       

       ELAPSED USER TIME (SEC)      =   9.2000    
       ELAPSED SYSTEM TIME (SEC)    =   0.0000    
       ELAPSED TOTAL CPU TIME (SEC) =   9.2000    
       ELAPSED WALLCLOCK TIME (SEC) =          2
 

 ***WARNING: SOLVER PROBLEM. NUMERICAL SINGULARITY WHEN PROCESSING NODE 
             ASSEMBLY.1 D.O.F. 6 RATIO = 13.7040E+09 .
  
     ASYNCHRONOUS TRACKING ELEMENT LOOP STARTED
  

                  168 SEVERE DISCONTINUITIES OCCURRED DURING THIS ITERATION.
                   65 POINTS CHANGED FROM OPEN TO CLOSED
                   91 POINTS CHANGED FROM CLOSED TO OPEN
                   12 POINTS CHANGED FROM STICKING TO SLIPPING

               CONVERGENCE CHECKS FOR SEVERE DISCONTINUITY ITERATION    10

   MAX. PENETRATION ERROR 241.218E-06   AT NODE BATTERY-1.3750 OF CONTACT PAIR 
   (ASSEMBLY_BATTERY-1_BATTOP,ASSEMBLY_CF-2_CFBOT)
   MAX. CONTACT FORCE ERROR -608.900E-03   AT NODE BATTERY-1.3631 OF CONTACT 
   PAIR (ASSEMBLY_BATTERY-1_BATTOP,ASSEMBLY_CF-2_CFBOT)
          THE ESTIMATED CONTACT FORCE ERROR IS OUTSIDE OF CONVERGENCE TOLERANCES.

 AVERAGE FORCE                      0.203       TIME AVG. FORCE       0.203    
 LARGEST RESIDUAL FORCE             0.402       AT NODE        381   DOF  3
   INSTANCE: CF-2                                                                            
 LARGEST INCREMENT OF DISP.        -0.247       AT NODE        563   DOF  3
   INSTANCE: POLYMER-1                                                                       
 LARGEST CORRECTION TO DISP.        1.701E-02   AT NODE        101   DOF  1
   INSTANCE: CF-2                                                                            
          FORCE     EQUILIBRIUM NOT ACHIEVED WITHIN TOLERANCE.

 AVERAGE MOMENT                     0.141       TIME AVG. MOMENT      0.141    
 LARGEST RESIDUAL MOMENT            5.319E-04   AT NODE        237   DOF  5
   INSTANCE: CF-1                                                                            
 LARGEST INCREMENT OF ROTATION      8.855E-03   AT NODE        525   DOF  5
   INSTANCE: CF-2                                                                            
 LARGEST CORRECTION TO ROTATION     4.794E-04   AT NODE        425   DOF  5
   INSTANCE: CF-2                                                                            
          ROTATION CORRECTION TOO LARGE COMPARED TO ROTATION INCREMENT

  NUMBER OF EQUATIONS =     31131     NUMBER OF RHS =    1
  NUMBER OF FLOATING PT. OPERATIONS =  7.55E+10

  USING THE DIRECT SOLVER WITH   6 PROCESSORS

     CHECK POINT   START OF SOLVER    

     CHECK POINT  END OF SOLVER       

       ELAPSED USER TIME (SEC)      =   8.8000    
       ELAPSED SYSTEM TIME (SEC)    =  0.10000    
       ELAPSED TOTAL CPU TIME (SEC) =   8.9000    
       ELAPSED WALLCLOCK TIME (SEC) =          1
 

 ***WARNING: SOLVER PROBLEM. NUMERICAL SINGULARITY WHEN PROCESSING NODE 
             ASSEMBLY.1 D.O.F. 6 RATIO = 14.1920E+09 .
  
     ASYNCHRONOUS TRACKING ELEMENT LOOP STARTED
  

                  131 SEVERE DISCONTINUITIES OCCURRED DURING THIS ITERATION.
                   39 POINTS CHANGED FROM OPEN TO CLOSED
                   90 POINTS CHANGED FROM CLOSED TO OPEN
                    2 POINTS CHANGED FROM STICKING TO SLIPPING

               CONVERGENCE CHECKS FOR SEVERE DISCONTINUITY ITERATION    11

   MAX. PENETRATION ERROR 222.801E-06   AT NODE BATTERY-1.3922 OF CONTACT PAIR 
   (ASSEMBLY_BATTERY-1_BATTOP,ASSEMBLY_CF-2_CFBOT)
   MAX. CONTACT FORCE ERROR -628.452E-03   AT NODE BATTERY-1.3632 OF CONTACT 
   PAIR (ASSEMBLY_BATTERY-1_BATTOP,ASSEMBLY_CF-2_CFBOT)
          THE ESTIMATED CONTACT FORCE ERROR IS OUTSIDE OF CONVERGENCE TOLERANCES.

 AVERAGE FORCE                      0.203       TIME AVG. FORCE       0.203    
 LARGEST RESIDUAL FORCE            -0.368       AT NODE       3632   DOF  3
   INSTANCE: BATTERY-1                                                                       
 LARGEST INCREMENT OF DISP.        -0.247       AT NODE        563   DOF  3
   INSTANCE: POLYMER-1                                                                       
 LARGEST CORRECTION TO DISP.        1.123E-02   AT NODE         93   DOF  2
   INSTANCE: CF-1                                                                            
          FORCE     EQUILIBRIUM NOT ACHIEVED WITHIN TOLERANCE.

 AVERAGE MOMENT                     0.141       TIME AVG. MOMENT      0.141    
 LARGEST RESIDUAL MOMENT           -6.848E-02   AT NODE          1   DOF  4
   INSTANCE:                                                                                 
 LARGEST INCREMENT OF ROTATION      8.773E-03   AT NODE        489   DOF  5
   INSTANCE: CF-2                                                                            
 LARGEST CORRECTION TO ROTATION     5.337E-04   AT NODE        381   DOF  5
   INSTANCE: CF-2                                                                            
          MOMENT    EQUILIBRIUM NOT ACHIEVED WITHIN TOLERANCE.

  NUMBER OF EQUATIONS =     31131     NUMBER OF RHS =    1
  NUMBER OF FLOATING PT. OPERATIONS =  7.55E+10

  USING THE DIRECT SOLVER WITH   6 PROCESSORS

     CHECK POINT   START OF SOLVER    

     CHECK POINT  END OF SOLVER       

       ELAPSED USER TIME (SEC)      =   9.0000    
       ELAPSED SYSTEM TIME (SEC)    =   0.0000    
       ELAPSED TOTAL CPU TIME (SEC) =   9.0000    
       ELAPSED WALLCLOCK TIME (SEC) =          1
 

 ***WARNING: SOLVER PROBLEM. NUMERICAL SINGULARITY WHEN PROCESSING NODE 
             ASSEMBLY.1 D.O.F. 6 RATIO = 14.7119E+09 .
  
     ASYNCHRONOUS TRACKING ELEMENT LOOP STARTED
  

                  111 SEVERE DISCONTINUITIES OCCURRED DURING THIS ITERATION.
                   26 POINTS CHANGED FROM OPEN TO CLOSED
                   84 POINTS CHANGED FROM CLOSED TO OPEN
                    1 POINTS CHANGED FROM STICKING TO SLIPPING

               CONVERGENCE CHECKS FOR SEVERE DISCONTINUITY ITERATION    12

   MAX. PENETRATION ERROR 147.671E-06   AT NODE BATTERY-1.2899 OF CONTACT PAIR 
   (ASSEMBLY_BATTERY-1_BATTOP,ASSEMBLY_CF-2_CFBOT)
   MAX. CONTACT FORCE ERROR -751.452E-03   AT NODE BATTERY-1.3929 OF CONTACT 
   PAIR (ASSEMBLY_BATTERY-1_BATTOP,ASSEMBLY_CF-2_CFBOT)
          THE ESTIMATED CONTACT FORCE ERROR IS OUTSIDE OF CONVERGENCE TOLERANCES.

 AVERAGE FORCE                      0.203       TIME AVG. FORCE       0.203    
 LARGEST RESIDUAL FORCE            -0.462       AT NODE       3929   DOF  3
   INSTANCE: BATTERY-1                                                                       
 LARGEST INCREMENT OF DISP.        -0.247       AT NODE        563   DOF  3
   INSTANCE: POLYMER-1                                                                       
 LARGEST CORRECTION TO DISP.        3.889E-02   AT NODE         94   DOF  2
   INSTANCE: CF-1                                                                            
          FORCE     EQUILIBRIUM NOT ACHIEVED WITHIN TOLERANCE.

 AVERAGE MOMENT                     0.141       TIME AVG. MOMENT      0.141    
 LARGEST RESIDUAL MOMENT           -3.871E-03   AT NODE          1   DOF  4
   INSTANCE:                                                                                 
 LARGEST INCREMENT OF ROTATION      8.718E-03   AT NODE        489   DOF  5
   INSTANCE: CF-2                                                                            
 LARGEST CORRECTION TO ROTATION     4.808E-04   AT NODE        353   DOF  5
   INSTANCE: CF-2                                                                            
          MOMENT    EQUILIBRIUM NOT ACHIEVED WITHIN TOLERANCE.

  NUMBER OF EQUATIONS =     31131     NUMBER OF RHS =    1
  NUMBER OF FLOATING PT. OPERATIONS =  7.53E+10

  USING THE DIRECT SOLVER WITH   6 PROCESSORS

     CHECK POINT   START OF SOLVER    

     CHECK POINT  END OF SOLVER       

       ELAPSED USER TIME (SEC)      =   8.9000    
       ELAPSED SYSTEM TIME (SEC)    =   0.0000    
       ELAPSED TOTAL CPU TIME (SEC) =   8.9000    
       ELAPSED WALLCLOCK TIME (SEC) =          2
 

 ***WARNING: SOLVER PROBLEM. NUMERICAL SINGULARITY WHEN PROCESSING NODE 
             ASSEMBLY.1 D.O.F. 6 RATIO = 15.2285E+09 .
  
     ASYNCHRONOUS TRACKING ELEMENT LOOP STARTED
  

                   96 SEVERE DISCONTINUITIES OCCURRED DURING THIS ITERATION.
                   34 POINTS CHANGED FROM OPEN TO CLOSED
                   62 POINTS CHANGED FROM CLOSED TO OPEN

               CONVERGENCE CHECKS FOR SEVERE DISCONTINUITY ITERATION    13

   MAX. PENETRATION ERROR 109.759E-06   AT NODE BATTERY-1.3842 OF CONTACT PAIR 
   (ASSEMBLY_BATTERY-1_BATTOP,ASSEMBLY_CF-2_CFBOT)
   MAX. CONTACT FORCE ERROR -682.908E-03   AT NODE BATTERY-1.3922 OF CONTACT 
   PAIR (ASSEMBLY_BATTERY-1_BATTOP,ASSEMBLY_CF-2_CFBOT)
          THE ESTIMATED CONTACT FORCE ERROR IS OUTSIDE OF CONVERGENCE TOLERANCES.

 AVERAGE FORCE                      0.203       TIME AVG. FORCE       0.203    
 LARGEST RESIDUAL FORCE             0.426       AT NODE        308   DOF  3
   INSTANCE: CF-2                                                                            
 LARGEST INCREMENT OF DISP.        -0.248       AT NODE        563   DOF  3
   INSTANCE: POLYMER-1                                                                       
 LARGEST CORRECTION TO DISP.        4.424E-03   AT NODE        425   DOF  3
   INSTANCE: CF-2                                                                            
          FORCE     EQUILIBRIUM NOT ACHIEVED WITHIN TOLERANCE.

 AVERAGE MOMENT                     0.140       TIME AVG. MOMENT      0.140    
 LARGEST RESIDUAL MOMENT           -1.107E-02   AT NODE          1   DOF  4
   INSTANCE:                                                                                 
 LARGEST INCREMENT OF ROTATION      8.622E-03   AT NODE        489   DOF  5
   INSTANCE: CF-2                                                                            
 LARGEST CORRECTION TO ROTATION     6.766E-04   AT NODE        317   DOF  5
   INSTANCE: CF-2                                                                            
          MOMENT    EQUILIBRIUM NOT ACHIEVED WITHIN TOLERANCE.

  NUMBER OF EQUATIONS =     31131     NUMBER OF RHS =    1
  NUMBER OF FLOATING PT. OPERATIONS =  7.47E+10

  USING THE DIRECT SOLVER WITH   6 PROCESSORS

     CHECK POINT   START OF SOLVER    

     CHECK POINT  END OF SOLVER       

       ELAPSED USER TIME (SEC)      =   8.8000    
       ELAPSED SYSTEM TIME (SEC)    =   0.0000    
       ELAPSED TOTAL CPU TIME (SEC) =   8.8000    
       ELAPSED WALLCLOCK TIME (SEC) =          1
 

 ***WARNING: SOLVER PROBLEM. NUMERICAL SINGULARITY WHEN PROCESSING NODE 
             ASSEMBLY.1 D.O.F. 6 RATIO = 15.7012E+09 .
  
     ASYNCHRONOUS TRACKING ELEMENT LOOP STARTED
  

                   73 SEVERE DISCONTINUITIES OCCURRED DURING THIS ITERATION.
                   21 POINTS CHANGED FROM OPEN TO CLOSED
                   52 POINTS CHANGED FROM CLOSED TO OPEN

               CONVERGENCE CHECKS FOR SEVERE DISCONTINUITY ITERATION    14

   MAX. PENETRATION ERROR 126.492E-06   AT NODE BATTERY-1.1233 OF CONTACT PAIR 
   (ASSEMBLY_BATTERY-1_BATBOT,ASSEMBLY_CF-1_CFTOP)
   MAX. CONTACT FORCE ERROR -612.152E-03   AT NODE BATTERY-1.2870 OF CONTACT 
   PAIR (ASSEMBLY_BATTERY-1_BATTOP,ASSEMBLY_CF-2_CFBOT)
          THE ESTIMATED CONTACT FORCE ERROR IS OUTSIDE OF CONVERGENCE TOLERANCES.

 AVERAGE FORCE                      0.203       TIME AVG. FORCE       0.203    
 LARGEST RESIDUAL FORCE             0.408       AT NODE        273   DOF  3
   INSTANCE: CF-2                                                                            
 LARGEST INCREMENT OF DISP.        -0.248       AT NODE        563   DOF  3
   INSTANCE: POLYMER-1                                                                       
 LARGEST CORRECTION TO DISP.        3.223E-02   AT NODE        101   DOF  1
   INSTANCE: CF-2                                                                            
          FORCE     EQUILIBRIUM NOT ACHIEVED WITHIN TOLERANCE.

 AVERAGE MOMENT                     0.140       TIME AVG. MOMENT      0.140    
 LARGEST RESIDUAL MOMENT           -0.248       AT NODE          1   DOF  4
   INSTANCE:                                                                                 
 LARGEST INCREMENT OF ROTATION      8.491E-03   AT NODE        489   DOF  5
   INSTANCE: CF-2                                                                            
 LARGEST CORRECTION TO ROTATION     4.830E-04   AT NODE        308   DOF  5
   INSTANCE: CF-2                                                                            
          MOMENT    EQUILIBRIUM NOT ACHIEVED WITHIN TOLERANCE.

  NUMBER OF EQUATIONS =     31131     NUMBER OF RHS =    1
  NUMBER OF FLOATING PT. OPERATIONS =  7.41E+10

  USING THE DIRECT SOLVER WITH   6 PROCESSORS

     CHECK POINT   START OF SOLVER    

     CHECK POINT  END OF SOLVER       

       ELAPSED USER TIME (SEC)      =   9.1000    
       ELAPSED SYSTEM TIME (SEC)    =   0.0000    
       ELAPSED TOTAL CPU TIME (SEC) =   9.1000    
       ELAPSED WALLCLOCK TIME (SEC) =          2
 

 ***WARNING: SOLVER PROBLEM. NUMERICAL SINGULARITY WHEN PROCESSING NODE 
             ASSEMBLY.1 D.O.F. 6 RATIO = 16.0748E+09 .
  
     ASYNCHRONOUS TRACKING ELEMENT LOOP STARTED
  

                   32 SEVERE DISCONTINUITIES OCCURRED DURING THIS ITERATION.
                   11 POINTS CHANGED FROM OPEN TO CLOSED
                   21 POINTS CHANGED FROM CLOSED TO OPEN

               CONVERGENCE CHECKS FOR SEVERE DISCONTINUITY ITERATION    15

   MAX. PENETRATION ERROR 59.8652E-06  AT NODE BATTERY-1.334 OF CONTACT PAIR 
   (ASSEMBLY_BATTERY-1_BATBOT,ASSEMBLY_CF-1_CFTOP)
   MAX. CONTACT FORCE ERROR -1.93163     AT NODE BATTERY-1.2722 OF CONTACT PAIR 
   (ASSEMBLY_BATTERY-1_BATTOP,ASSEMBLY_CF-2_CFBOT)
          THE ESTIMATED CONTACT FORCE ERROR IS OUTSIDE OF CONVERGENCE TOLERANCES.

 AVERAGE FORCE                      0.203       TIME AVG. FORCE       0.203    
 LARGEST RESIDUAL FORCE             0.622       AT NODE        273   DOF  3
   INSTANCE: CF-2                                                                            
 LARGEST INCREMENT OF DISP.        -0.248       AT NODE        563   DOF  3
   INSTANCE: POLYMER-1                                                                       
 LARGEST CORRECTION TO DISP.        4.120E-02   AT NODE         94   DOF  2
   INSTANCE: CF-1                                                                            
          FORCE     EQUILIBRIUM NOT ACHIEVED WITHIN TOLERANCE.

 AVERAGE MOMENT                     0.140       TIME AVG. MOMENT      0.140    
 LARGEST RESIDUAL MOMENT            -2.49       AT NODE          1   DOF  4
   INSTANCE:                                                                                 
 LARGEST INCREMENT OF ROTATION      8.411E-03   AT NODE        490   DOF  5
   INSTANCE: CF-2                                                                            
 LARGEST CORRECTION TO ROTATION    -3.760E-04   AT NODE         21   DOF  6
   INSTANCE: CF-1                                                                            
          MOMENT    EQUILIBRIUM NOT ACHIEVED WITHIN TOLERANCE.

  NUMBER OF EQUATIONS =     31131     NUMBER OF RHS =    1
  NUMBER OF FLOATING PT. OPERATIONS =  7.38E+10

  USING THE DIRECT SOLVER WITH   6 PROCESSORS

     CHECK POINT   START OF SOLVER    

     CHECK POINT  END OF SOLVER       

       ELAPSED USER TIME (SEC)      =   9.1000    
       ELAPSED SYSTEM TIME (SEC)    =  0.10000    
       ELAPSED TOTAL CPU TIME (SEC) =   9.2000    
       ELAPSED WALLCLOCK TIME (SEC) =          2
 

 ***WARNING: SOLVER PROBLEM. NUMERICAL SINGULARITY WHEN PROCESSING NODE 
             ASSEMBLY.1 D.O.F. 6 RATIO = 16.1827E+09 .
  
     ASYNCHRONOUS TRACKING ELEMENT LOOP STARTED
  

                   19 SEVERE DISCONTINUITIES OCCURRED DURING THIS ITERATION.
                    9 POINTS CHANGED FROM OPEN TO CLOSED
                    9 POINTS CHANGED FROM CLOSED TO OPEN
                    1 POINTS CHANGED FROM STICKING TO SLIPPING

               CONVERGENCE CHECKS FOR SEVERE DISCONTINUITY ITERATION    16

   MAX. PENETRATION ERROR 92.5344E-06  AT NODE BATTERY-1.338 OF CONTACT PAIR 
   (ASSEMBLY_BATTERY-1_BATBOT,ASSEMBLY_CF-1_CFTOP)
   MAX. CONTACT FORCE ERROR 85.9486E-03  AT NODE BATTERY-1.338 OF CONTACT PAIR 
   (ASSEMBLY_BATTERY-1_BATBOT,ASSEMBLY_CF-1_CFTOP)
          THE CONTACT CONSTRAINT ERRORS ARE WITHIN THE TOLERANCES.

 AVERAGE FORCE                      0.203       TIME AVG. FORCE       0.203    
 LARGEST RESIDUAL FORCE             4.230E-02   AT NODE       1155   DOF  3
   INSTANCE: BATTERY-1                                                                       
 LARGEST INCREMENT OF DISP.        -0.248       AT NODE        563   DOF  3
   INSTANCE: POLYMER-1                                                                       
 LARGEST CORRECTION TO DISP.        4.562E-02   AT NODE        169   DOF  1
   INSTANCE: CF-1                                                                            
          FORCE     EQUILIBRIUM NOT ACHIEVED WITHIN TOLERANCE.

 AVERAGE MOMENT                     0.140       TIME AVG. MOMENT      0.140    
 LARGEST RESIDUAL MOMENT           -3.746E-04   AT NODE          1   DOF  6
   INSTANCE:                                                                                 
 LARGEST INCREMENT OF ROTATION      8.381E-03   AT NODE          3   DOF  5
   INSTANCE: CF-1                                                                            
 LARGEST CORRECTION TO ROTATION     4.168E-04   AT NODE        273   DOF  5
   INSTANCE: CF-2                                                                            
 ESTIMATE OF ROTATION CORRECTION    6.296E-07
 MOMENT    EQUILIB. ACCEPTED BASED ON SMALL RESIDUAL AND ESTIMATED CORRECTION

  NUMBER OF EQUATIONS =     31131     NUMBER OF RHS =    1
  NUMBER OF FLOATING PT. OPERATIONS =  7.36E+10

  USING THE DIRECT SOLVER WITH   6 PROCESSORS

     CHECK POINT   START OF SOLVER    

     CHECK POINT  END OF SOLVER       

       ELAPSED USER TIME (SEC)      =   8.8000    
       ELAPSED SYSTEM TIME (SEC)    =  0.10000    
       ELAPSED TOTAL CPU TIME (SEC) =   8.9000    
       ELAPSED WALLCLOCK TIME (SEC) =          1
 

 ***WARNING: SOLVER PROBLEM. NUMERICAL SINGULARITY WHEN PROCESSING NODE 
             ASSEMBLY.1 D.O.F. 6 RATIO = 16.2089E+09 .
  
     ASYNCHRONOUS TRACKING ELEMENT LOOP STARTED
  

                    6 SEVERE DISCONTINUITIES OCCURRED DURING THIS ITERATION.
                    1 POINTS CHANGED FROM OPEN TO CLOSED
                    5 POINTS CHANGED FROM CLOSED TO OPEN

               CONVERGENCE CHECKS FOR SEVERE DISCONTINUITY ITERATION    17

   MAX. PENETRATION ERROR 209.411E-09   AT NODE BATTERY-1.11 OF CONTACT PAIR 
   (ASSEMBLY_BATTERY-1_BATBOT,ASSEMBLY_CF-1_CFTOP)
   MAX. CONTACT FORCE ERROR -30.2760E-03  AT NODE BATTERY-1.1159 OF CONTACT 
   PAIR (ASSEMBLY_BATTERY-1_BATBOT,ASSEMBLY_CF-1_CFTOP)
          THE CONTACT CONSTRAINT ERRORS ARE WITHIN THE TOLERANCES.

 AVERAGE FORCE                      0.203       TIME AVG. FORCE       0.203    
 LARGEST RESIDUAL FORCE             1.875E-02   AT NODE       1159   DOF  3
   INSTANCE: BATTERY-1                                                                       
 LARGEST INCREMENT OF DISP.        -0.248       AT NODE        563   DOF  3
   INSTANCE: POLYMER-1                                                                       
 LARGEST CORRECTION TO DISP.       -4.190E-02   AT NODE          1   DOF  1
   INSTANCE: CF-2                                                                            
          FORCE     EQUILIBRIUM NOT ACHIEVED WITHIN TOLERANCE.

 AVERAGE MOMENT                     0.140       TIME AVG. MOMENT      0.140    
 LARGEST RESIDUAL MOMENT            2.384E-04   AT NODE          1   DOF  6
   INSTANCE:                                                                                 
 LARGEST INCREMENT OF ROTATION      8.381E-03   AT NODE          3   DOF  5
   INSTANCE: CF-1                                                                            
 LARGEST CORRECTION TO ROTATION    -3.810E-04   AT NODE        884   DOF  6
   INSTANCE: CF-1                                                                            
          ROTATION CORRECTION TOO LARGE COMPARED TO ROTATION INCREMENT

  NUMBER OF EQUATIONS =     31131     NUMBER OF RHS =    1
  NUMBER OF FLOATING PT. OPERATIONS =  7.31E+10

  USING THE DIRECT SOLVER WITH   6 PROCESSORS

     CHECK POINT   START OF SOLVER    

     CHECK POINT  END OF SOLVER       

       ELAPSED USER TIME (SEC)      =   8.8000    
       ELAPSED SYSTEM TIME (SEC)    =   0.0000    
       ELAPSED TOTAL CPU TIME (SEC) =   8.8000    
       ELAPSED WALLCLOCK TIME (SEC) =          2
 

 ***WARNING: SOLVER PROBLEM. NUMERICAL SINGULARITY WHEN PROCESSING NODE 
             ASSEMBLY.1 D.O.F. 6 RATIO = 16.2127E+09 .
  
     ASYNCHRONOUS TRACKING ELEMENT LOOP STARTED
  

                    5 SEVERE DISCONTINUITIES OCCURRED DURING THIS ITERATION.
                    1 POINTS CHANGED FROM OPEN TO CLOSED
                    4 POINTS CHANGED FROM CLOSED TO OPEN

               CONVERGENCE CHECKS FOR SEVERE DISCONTINUITY ITERATION    18

   MAX. PENETRATION ERROR 2.75420E-06 AT NODE BATTERY-1.1187 OF CONTACT PAIR 
   (ASSEMBLY_BATTERY-1_BATBOT,ASSEMBLY_CF-1_CFTOP)
   MAX. CONTACT FORCE ERROR -16.7836E-03  AT NODE BATTERY-1.1194 OF CONTACT 
   PAIR (ASSEMBLY_BATTERY-1_BATBOT,ASSEMBLY_CF-1_CFTOP)
          THE CONTACT CONSTRAINT ERRORS ARE WITHIN THE TOLERANCES.

 AVERAGE FORCE                      0.203       TIME AVG. FORCE       0.203    
 LARGEST RESIDUAL FORCE             9.479E-03   AT NODE       1194   DOF  3
   INSTANCE: BATTERY-1                                                                       
 LARGEST INCREMENT OF DISP.        -0.248       AT NODE        563   DOF  3
   INSTANCE: POLYMER-1                                                                       
 LARGEST CORRECTION TO DISP.        3.675E-02   AT NODE          1   DOF  1
   INSTANCE: CF-1                                                                            
          FORCE     EQUILIBRIUM NOT ACHIEVED WITHIN TOLERANCE.

 AVERAGE MOMENT                     0.140       TIME AVG. MOMENT      0.140    
 LARGEST RESIDUAL MOMENT           -2.114E-04   AT NODE          1   DOF  6
   INSTANCE:                                                                                 
 LARGEST INCREMENT OF ROTATION      8.381E-03   AT NODE          3   DOF  5
   INSTANCE: CF-1                                                                            
 LARGEST CORRECTION TO ROTATION     3.341E-04   AT NODE        881   DOF  6
   INSTANCE: CF-1                                                                            
          ROTATION CORRECTION TOO LARGE COMPARED TO ROTATION INCREMENT

  NUMBER OF EQUATIONS =     31131     NUMBER OF RHS =    1
  NUMBER OF FLOATING PT. OPERATIONS =  7.28E+10

  USING THE DIRECT SOLVER WITH   6 PROCESSORS

     CHECK POINT   START OF SOLVER    

     CHECK POINT  END OF SOLVER       

       ELAPSED USER TIME (SEC)      =   8.7000    
       ELAPSED SYSTEM TIME (SEC)    =  0.10000    
       ELAPSED TOTAL CPU TIME (SEC) =   8.8000    
       ELAPSED WALLCLOCK TIME (SEC) =          2
 

 ***WARNING: SOLVER PROBLEM. NUMERICAL SINGULARITY WHEN PROCESSING NODE 
             ASSEMBLY.1 D.O.F. 6 RATIO = 16.2154E+09 .
  
     ASYNCHRONOUS TRACKING ELEMENT LOOP STARTED
  

                    3 SEVERE DISCONTINUITIES OCCURRED DURING THIS ITERATION.
                    1 POINTS CHANGED FROM OPEN TO CLOSED
                    2 POINTS CHANGED FROM CLOSED TO OPEN

               CONVERGENCE CHECKS FOR SEVERE DISCONTINUITY ITERATION    19

   MAX. PENETRATION ERROR 141.727E-09   AT NODE BATTERY-1.1182 OF CONTACT PAIR 
   (ASSEMBLY_BATTERY-1_BATBOT,ASSEMBLY_CF-1_CFTOP)
   MAX. CONTACT FORCE ERROR -4.88016E-03 AT NODE BATTERY-1.1160 OF CONTACT PAIR 
   (ASSEMBLY_BATTERY-1_BATBOT,ASSEMBLY_CF-1_CFTOP)
          THE CONTACT CONSTRAINT ERRORS ARE WITHIN THE TOLERANCES.

 AVERAGE FORCE                      0.203       TIME AVG. FORCE       0.203    
 LARGEST RESIDUAL FORCE             2.863E-03   AT NODE       1160   DOF  3
   INSTANCE: BATTERY-1                                                                       
 LARGEST INCREMENT OF DISP.        -0.248       AT NODE        563   DOF  3
   INSTANCE: POLYMER-1                                                                       
 LARGEST CORRECTION TO DISP.       -3.261E-02   AT NODE          1   DOF  1
   INSTANCE: CF-2                                                                            
          FORCE     EQUILIBRIUM NOT ACHIEVED WITHIN TOLERANCE.

 AVERAGE MOMENT                     0.140       TIME AVG. MOMENT      0.140    
 LARGEST RESIDUAL MOMENT            1.877E-04   AT NODE          1   DOF  6
   INSTANCE:                                                                                 
 LARGEST INCREMENT OF ROTATION      8.381E-03   AT NODE          3   DOF  5
   INSTANCE: CF-1                                                                            
 LARGEST CORRECTION TO ROTATION    -2.964E-04   AT NODE        858   DOF  6
   INSTANCE: CF-1                                                                            
          ROTATION CORRECTION TOO LARGE COMPARED TO ROTATION INCREMENT

  NUMBER OF EQUATIONS =     31131     NUMBER OF RHS =    1
  NUMBER OF FLOATING PT. OPERATIONS =  7.27E+10

  USING THE DIRECT SOLVER WITH   6 PROCESSORS

     CHECK POINT   START OF SOLVER    

     CHECK POINT  END OF SOLVER       

       ELAPSED USER TIME (SEC)      =   8.7000    
       ELAPSED SYSTEM TIME (SEC)    =  0.10000    
       ELAPSED TOTAL CPU TIME (SEC) =   8.8000    
       ELAPSED WALLCLOCK TIME (SEC) =          1
 

 ***WARNING: SOLVER PROBLEM. NUMERICAL SINGULARITY WHEN PROCESSING NODE 
             ASSEMBLY.1 D.O.F. 6 RATIO = 16.2148E+09 .
  
     ASYNCHRONOUS TRACKING ELEMENT LOOP STARTED
  

                    1 SEVERE DISCONTINUITIES OCCURRED DURING THIS ITERATION.
                    1 POINTS CHANGED FROM CLOSED TO OPEN

               CONVERGENCE CHECKS FOR SEVERE DISCONTINUITY ITERATION    20

   MAX. PENETRATION ERROR -9.31952E-12 AT NODE BATTERY-1.412 OF CONTACT PAIR 
   (ASSEMBLY_BATTERY-1_BATBOT,ASSEMBLY_CF-1_CFTOP)
   MAX. CONTACT FORCE ERROR -160.150E-06   AT NODE BATTERY-1.1182 OF CONTACT 
   PAIR (ASSEMBLY_BATTERY-1_BATBOT,ASSEMBLY_CF-1_CFTOP)
          THE CONTACT CONSTRAINT ERRORS ARE WITHIN THE TOLERANCES.

 AVERAGE FORCE                      0.203       TIME AVG. FORCE       0.203    
 LARGEST RESIDUAL FORCE             9.082E-05   AT NODE       1182   DOF  3
   INSTANCE: BATTERY-1                                                                       
 LARGEST INCREMENT OF DISP.        -0.248       AT NODE        563   DOF  3
   INSTANCE: POLYMER-1                                                                       
 LARGEST CORRECTION TO DISP.        2.887E-02   AT NODE        490   DOF  1
   INSTANCE: POLYMER-1                                                                       
          DISP.    CORRECTION TOO LARGE COMPARED TO DISP.    INCREMENT

 AVERAGE MOMENT                     0.140       TIME AVG. MOMENT      0.140    
 LARGEST RESIDUAL MOMENT           -1.652E-04   AT NODE          1   DOF  6
   INSTANCE:                                                                                 
 LARGEST INCREMENT OF ROTATION      8.381E-03   AT NODE          3   DOF  5
   INSTANCE: CF-1                                                                            
 LARGEST CORRECTION TO ROTATION     2.624E-04   AT NODE        710   DOF  6
   INSTANCE: CF-1                                                                            
          ROTATION CORRECTION TOO LARGE COMPARED TO ROTATION INCREMENT

  NUMBER OF EQUATIONS =     31131     NUMBER OF RHS =    1
  NUMBER OF FLOATING PT. OPERATIONS =  7.27E+10

  USING THE DIRECT SOLVER WITH   6 PROCESSORS

     CHECK POINT   START OF SOLVER    

     CHECK POINT  END OF SOLVER       

       ELAPSED USER TIME (SEC)      =   8.6000    
       ELAPSED SYSTEM TIME (SEC)    =  0.10000    
       ELAPSED TOTAL CPU TIME (SEC) =   8.7000    
       ELAPSED WALLCLOCK TIME (SEC) =          1
 

 ***WARNING: SOLVER PROBLEM. NUMERICAL SINGULARITY WHEN PROCESSING NODE 
             ASSEMBLY.1 D.O.F. 6 RATIO = 16.2175E+09 .
  
     ASYNCHRONOUS TRACKING ELEMENT LOOP STARTED
  

               CONVERGENCE CHECKS FOR EQUILIBRIUM ITERATION     1

   MAX. PENETRATION ERROR -6.23931E-12 AT NODE BATTERY-1.551 OF CONTACT PAIR 
   (ASSEMBLY_BATTERY-1_BATBOT,ASSEMBLY_CF-1_CFTOP)
   MAX. CONTACT FORCE ERROR -8.57619E-09 AT NODE BATTERY-1.551 OF CONTACT PAIR 
   (ASSEMBLY_BATTERY-1_BATBOT,ASSEMBLY_CF-1_CFTOP)
          THE CONTACT CONSTRAINTS HAVE CONVERGED.

 AVERAGE FORCE                      0.203       TIME AVG. FORCE       0.203    
 LARGEST RESIDUAL FORCE             3.095E-05   AT NODE          1   DOF  2
   INSTANCE:                                                                                 
 LARGEST INCREMENT OF DISP.        -0.248       AT NODE        563   DOF  3
   INSTANCE: POLYMER-1                                                                       
 LARGEST CORRECTION TO DISP.       -2.549E-02   AT NODE        490   DOF  1
   INSTANCE: POLYMER-1                                                                       
          DISP.    CORRECTION TOO LARGE COMPARED TO DISP.    INCREMENT

 AVERAGE MOMENT                     0.140       TIME AVG. MOMENT      0.140    
 LARGEST RESIDUAL MOMENT            1.454E-04   AT NODE          1   DOF  6
   INSTANCE:                                                                                 
 LARGEST INCREMENT OF ROTATION      8.381E-03   AT NODE          3   DOF  5
   INSTANCE: CF-1                                                                            
 LARGEST CORRECTION TO ROTATION    -2.317E-04   AT NODE        710   DOF  6
   INSTANCE: CF-1                                                                            
          ROTATION CORRECTION TOO LARGE COMPARED TO ROTATION INCREMENT

  NUMBER OF EQUATIONS =     31131     NUMBER OF RHS =    1
  NUMBER OF FLOATING PT. OPERATIONS =  7.27E+10

  USING THE DIRECT SOLVER WITH   6 PROCESSORS

     CHECK POINT   START OF SOLVER    

     CHECK POINT  END OF SOLVER       

       ELAPSED USER TIME (SEC)      =   8.5000    
       ELAPSED SYSTEM TIME (SEC)    =  0.10000    
       ELAPSED TOTAL CPU TIME (SEC) =   8.6000    
       ELAPSED WALLCLOCK TIME (SEC) =          2
 

 ***WARNING: SOLVER PROBLEM. NUMERICAL SINGULARITY WHEN PROCESSING NODE 
             ASSEMBLY.1 D.O.F. 6 RATIO = 16.2167E+09 .
  
     ASYNCHRONOUS TRACKING ELEMENT LOOP STARTED
  

               CONVERGENCE CHECKS FOR EQUILIBRIUM ITERATION     2

   MAX. PENETRATION ERROR -5.95939E-12 AT NODE BATTERY-1.412 OF CONTACT PAIR 
   (ASSEMBLY_BATTERY-1_BATBOT,ASSEMBLY_CF-1_CFTOP)
   MAX. CONTACT FORCE ERROR -7.97909E-09 AT NODE BATTERY-1.412 OF CONTACT PAIR 
   (ASSEMBLY_BATTERY-1_BATBOT,ASSEMBLY_CF-1_CFTOP)
          THE CONTACT CONSTRAINTS HAVE CONVERGED.

 AVERAGE FORCE                      0.203       TIME AVG. FORCE       0.203    
 LARGEST RESIDUAL FORCE            -2.731E-05   AT NODE          1   DOF  2
   INSTANCE:                                                                                 
 LARGEST INCREMENT OF DISP.        -0.248       AT NODE        563   DOF  3
   INSTANCE: POLYMER-1                                                                       
 LARGEST CORRECTION TO DISP.        2.249E-02   AT NODE        490   DOF  1
   INSTANCE: POLYMER-1                                                                       
          DISP.    CORRECTION TOO LARGE COMPARED TO DISP.    INCREMENT

 AVERAGE MOMENT                     0.140       TIME AVG. MOMENT      0.140    
 LARGEST RESIDUAL MOMENT           -1.287E-04   AT NODE          1   DOF  6
   INSTANCE:                                                                                 
 LARGEST INCREMENT OF ROTATION      8.381E-03   AT NODE          3   DOF  5
   INSTANCE: CF-1                                                                            
 LARGEST CORRECTION TO ROTATION     2.045E-04   AT NODE        710   DOF  6
   INSTANCE: CF-1                                                                            
          ROTATION CORRECTION TOO LARGE COMPARED TO ROTATION INCREMENT

  NUMBER OF EQUATIONS =     31131     NUMBER OF RHS =    1
  NUMBER OF FLOATING PT. OPERATIONS =  7.27E+10

  USING THE DIRECT SOLVER WITH   6 PROCESSORS

     CHECK POINT   START OF SOLVER    

     CHECK POINT  END OF SOLVER       

       ELAPSED USER TIME (SEC)      =   8.4000    
       ELAPSED SYSTEM TIME (SEC)    =   0.0000    
       ELAPSED TOTAL CPU TIME (SEC) =   8.4000    
       ELAPSED WALLCLOCK TIME (SEC) =          1
 

 ***WARNING: SOLVER PROBLEM. NUMERICAL SINGULARITY WHEN PROCESSING NODE 
             ASSEMBLY.1 D.O.F. 6 RATIO = 16.2171E+09 .
  
     ASYNCHRONOUS TRACKING ELEMENT LOOP STARTED
  

               CONVERGENCE CHECKS FOR EQUILIBRIUM ITERATION     3

   MAX. PENETRATION ERROR -3.75311E-12 AT NODE BATTERY-1.551 OF CONTACT PAIR 
   (ASSEMBLY_BATTERY-1_BATBOT,ASSEMBLY_CF-1_CFTOP)
   MAX. CONTACT FORCE ERROR -5.15879E-09 AT NODE BATTERY-1.551 OF CONTACT PAIR 
   (ASSEMBLY_BATTERY-1_BATBOT,ASSEMBLY_CF-1_CFTOP)
          THE CONTACT CONSTRAINTS HAVE CONVERGED.

 AVERAGE FORCE                      0.203       TIME AVG. FORCE       0.203    
 LARGEST RESIDUAL FORCE             2.410E-05   AT NODE          1   DOF  2
   INSTANCE:                                                                                 
 LARGEST INCREMENT OF DISP.        -0.248       AT NODE        563   DOF  3
   INSTANCE: POLYMER-1                                                                       
 LARGEST CORRECTION TO DISP.       -1.985E-02   AT NODE        490   DOF  1
   INSTANCE: POLYMER-1                                                                       
          DISP.    CORRECTION TOO LARGE COMPARED TO DISP.    INCREMENT

 AVERAGE MOMENT                     0.140       TIME AVG. MOMENT      0.140    
 LARGEST RESIDUAL MOMENT            1.133E-04   AT NODE          1   DOF  6
   INSTANCE:                                                                                 
 LARGEST INCREMENT OF ROTATION      8.381E-03   AT NODE          3   DOF  5
   INSTANCE: CF-1                                                                            
 LARGEST CORRECTION TO ROTATION    -1.805E-04   AT NODE        710   DOF  6
   INSTANCE: CF-1                                                                            
          ROTATION CORRECTION TOO LARGE COMPARED TO ROTATION INCREMENT

  NUMBER OF EQUATIONS =     31131     NUMBER OF RHS =    1
  NUMBER OF FLOATING PT. OPERATIONS =  7.27E+10

  USING THE DIRECT SOLVER WITH   6 PROCESSORS

     CHECK POINT   START OF SOLVER    

     CHECK POINT  END OF SOLVER       

       ELAPSED USER TIME (SEC)      =   8.5000    
       ELAPSED SYSTEM TIME (SEC)    =  0.10000    
       ELAPSED TOTAL CPU TIME (SEC) =   8.6000    
       ELAPSED WALLCLOCK TIME (SEC) =          1
 

 ***WARNING: SOLVER PROBLEM. NUMERICAL SINGULARITY WHEN PROCESSING NODE 
             ASSEMBLY.1 D.O.F. 6 RATIO = 16.2147E+09 .
  
     ASYNCHRONOUS TRACKING ELEMENT LOOP STARTED
  

               CONVERGENCE CHECKS FOR EQUILIBRIUM ITERATION     4

   MAX. PENETRATION ERROR -3.84878E-12 AT NODE BATTERY-1.412 OF CONTACT PAIR 
   (ASSEMBLY_BATTERY-1_BATBOT,ASSEMBLY_CF-1_CFTOP)
   MAX. CONTACT FORCE ERROR -5.15318E-09 AT NODE BATTERY-1.412 OF CONTACT PAIR 
   (ASSEMBLY_BATTERY-1_BATBOT,ASSEMBLY_CF-1_CFTOP)
          THE CONTACT CONSTRAINTS HAVE CONVERGED.

 AVERAGE FORCE                      0.203       TIME AVG. FORCE       0.203    
 LARGEST RESIDUAL FORCE            -2.127E-05   AT NODE          1   DOF  2
   INSTANCE:                                                                                 
 LARGEST INCREMENT OF DISP.        -0.248       AT NODE        563   DOF  3
   INSTANCE: POLYMER-1                                                                       
 LARGEST CORRECTION TO DISP.        1.752E-02   AT NODE        490   DOF  1
   INSTANCE: POLYMER-1                                                                       
          DISP.    CORRECTION TOO LARGE COMPARED TO DISP.    INCREMENT

 AVERAGE MOMENT                     0.140       TIME AVG. MOMENT      0.140    
 LARGEST RESIDUAL MOMENT           -1.002E-04   AT NODE          1   DOF  6
   INSTANCE:                                                                                 
 LARGEST INCREMENT OF ROTATION      8.381E-03   AT NODE          3   DOF  5
   INSTANCE: CF-1                                                                            
 LARGEST CORRECTION TO ROTATION     1.593E-04   AT NODE        710   DOF  6
   INSTANCE: CF-1                                                                            
          ROTATION CORRECTION TOO LARGE COMPARED TO ROTATION INCREMENT

  NUMBER OF EQUATIONS =     31131     NUMBER OF RHS =    1
  NUMBER OF FLOATING PT. OPERATIONS =  7.27E+10

  USING THE DIRECT SOLVER WITH   6 PROCESSORS

     CHECK POINT   START OF SOLVER    

     CHECK POINT  END OF SOLVER       

       ELAPSED USER TIME (SEC)      =   8.6000    
       ELAPSED SYSTEM TIME (SEC)    =  0.10000    
       ELAPSED TOTAL CPU TIME (SEC) =   8.7000    
       ELAPSED WALLCLOCK TIME (SEC) =          2
 

 ***WARNING: SOLVER PROBLEM. NUMERICAL SINGULARITY WHEN PROCESSING NODE 
             ASSEMBLY.1 D.O.F. 6 RATIO = 16.2159E+09 .
  
     ASYNCHRONOUS TRACKING ELEMENT LOOP STARTED
  

               CONVERGENCE CHECKS FOR EQUILIBRIUM ITERATION     5

   MAX. PENETRATION ERROR -2.25048E-12 AT NODE BATTERY-1.551 OF CONTACT PAIR 
   (ASSEMBLY_BATTERY-1_BATBOT,ASSEMBLY_CF-1_CFTOP)
   MAX. CONTACT FORCE ERROR -3.09338E-09 AT NODE BATTERY-1.551 OF CONTACT PAIR 
   (ASSEMBLY_BATTERY-1_BATBOT,ASSEMBLY_CF-1_CFTOP)
          THE CONTACT CONSTRAINTS HAVE CONVERGED.

 AVERAGE FORCE                      0.203       TIME AVG. FORCE       0.203    
 LARGEST RESIDUAL FORCE             1.877E-05   AT NODE          1   DOF  2
   INSTANCE:                                                                                 
 LARGEST INCREMENT OF DISP.        -0.248       AT NODE        563   DOF  3
   INSTANCE: POLYMER-1                                                                       
 LARGEST CORRECTION TO DISP.       -1.546E-02   AT NODE        490   DOF  1
   INSTANCE: POLYMER-1                                                                       
          DISP.    CORRECTION TOO LARGE COMPARED TO DISP.    INCREMENT

 AVERAGE MOMENT                     0.140       TIME AVG. MOMENT      0.140    
 LARGEST RESIDUAL MOMENT            8.825E-05   AT NODE          1   DOF  6
   INSTANCE:                                                                                 
 LARGEST INCREMENT OF ROTATION      8.381E-03   AT NODE          3   DOF  5
   INSTANCE: CF-1                                                                            
 LARGEST CORRECTION TO ROTATION    -1.405E-04   AT NODE        710   DOF  6
   INSTANCE: CF-1                                                                            
          ROTATION CORRECTION TOO LARGE COMPARED TO ROTATION INCREMENT

  NUMBER OF EQUATIONS =     31131     NUMBER OF RHS =    1
  NUMBER OF FLOATING PT. OPERATIONS =  7.27E+10

  USING THE DIRECT SOLVER WITH   6 PROCESSORS

     CHECK POINT   START OF SOLVER    

     CHECK POINT  END OF SOLVER       

       ELAPSED USER TIME (SEC)      =   8.6000    
       ELAPSED SYSTEM TIME (SEC)    =  0.10000    
       ELAPSED TOTAL CPU TIME (SEC) =   8.7000    
       ELAPSED WALLCLOCK TIME (SEC) =          2
 

 ***WARNING: SOLVER PROBLEM. NUMERICAL SINGULARITY WHEN PROCESSING NODE 
             ASSEMBLY.1 D.O.F. 6 RATIO = 16.2172E+09 .
  
     ASYNCHRONOUS TRACKING ELEMENT LOOP STARTED
  

               CONVERGENCE CHECKS FOR EQUILIBRIUM ITERATION     6

   MAX. PENETRATION ERROR -2.51630E-12 AT NODE BATTERY-1.412 OF CONTACT PAIR 
   (ASSEMBLY_BATTERY-1_BATBOT,ASSEMBLY_CF-1_CFTOP)
   MAX. CONTACT FORCE ERROR -3.36910E-09 AT NODE BATTERY-1.412 OF CONTACT PAIR 
   (ASSEMBLY_BATTERY-1_BATBOT,ASSEMBLY_CF-1_CFTOP)
          THE CONTACT CONSTRAINTS HAVE CONVERGED.

 AVERAGE FORCE                      0.203       TIME AVG. FORCE       0.203    
 LARGEST RESIDUAL FORCE            -1.656E-05   AT NODE          1   DOF  2
   INSTANCE:                                                                                 
 LARGEST INCREMENT OF DISP.        -0.248       AT NODE        563   DOF  3
   INSTANCE: POLYMER-1                                                                       
 LARGEST CORRECTION TO DISP.        1.364E-02   AT NODE        490   DOF  1
   INSTANCE: POLYMER-1                                                                       
          DISP.    CORRECTION TOO LARGE COMPARED TO DISP.    INCREMENT

 AVERAGE MOMENT                     0.140       TIME AVG. MOMENT      0.140    
 LARGEST RESIDUAL MOMENT           -7.801E-05   AT NODE          1   DOF  6
   INSTANCE:                                                                                 
 LARGEST INCREMENT OF ROTATION      8.381E-03   AT NODE          3   DOF  5
   INSTANCE: CF-1                                                                            
 LARGEST CORRECTION TO ROTATION     1.240E-04   AT NODE        710   DOF  6
   INSTANCE: CF-1                                                                            
          ROTATION CORRECTION TOO LARGE COMPARED TO ROTATION INCREMENT

  NUMBER OF EQUATIONS =     31131     NUMBER OF RHS =    1
  NUMBER OF FLOATING PT. OPERATIONS =  7.27E+10

  USING THE DIRECT SOLVER WITH   6 PROCESSORS

     CHECK POINT   START OF SOLVER    

     CHECK POINT  END OF SOLVER       

       ELAPSED USER TIME (SEC)      =   8.6000    
       ELAPSED SYSTEM TIME (SEC)    =   0.0000    
       ELAPSED TOTAL CPU TIME (SEC) =   8.6000    
       ELAPSED WALLCLOCK TIME (SEC) =          1
 

 ***WARNING: SOLVER PROBLEM. NUMERICAL SINGULARITY WHEN PROCESSING NODE 
             ASSEMBLY.1 D.O.F. 6 RATIO = 16.2142E+09 .
  
     ASYNCHRONOUS TRACKING ELEMENT LOOP STARTED
  

               CONVERGENCE CHECKS FOR EQUILIBRIUM ITERATION     7

   MAX. PENETRATION ERROR -1.34544E-12 AT NODE BATTERY-1.551 OF CONTACT PAIR 
   (ASSEMBLY_BATTERY-1_BATBOT,ASSEMBLY_CF-1_CFTOP)
   MAX. CONTACT FORCE ERROR -1.84936E-09 AT NODE BATTERY-1.551 OF CONTACT PAIR 
   (ASSEMBLY_BATTERY-1_BATBOT,ASSEMBLY_CF-1_CFTOP)
          THE CONTACT CONSTRAINTS HAVE CONVERGED.

 AVERAGE FORCE                      0.203       TIME AVG. FORCE       0.203    
 LARGEST RESIDUAL FORCE             1.461E-05   AT NODE          1   DOF  2
   INSTANCE:                                                                                 
 LARGEST INCREMENT OF DISP.        -0.248       AT NODE        563   DOF  3
   INSTANCE: POLYMER-1                                                                       
 LARGEST CORRECTION TO DISP.       -1.204E-02   AT NODE        490   DOF  1
   INSTANCE: POLYMER-1                                                                       
          DISP.    CORRECTION TOO LARGE COMPARED TO DISP.    INCREMENT

 AVERAGE MOMENT                     0.140       TIME AVG. MOMENT      0.140    
 LARGEST RESIDUAL MOMENT            6.873E-05   AT NODE          1   DOF  6
   INSTANCE:                                                                                 
 LARGEST INCREMENT OF ROTATION      8.381E-03   AT NODE          3   DOF  5
   INSTANCE: CF-1                                                                            
 LARGEST CORRECTION TO ROTATION    -1.094E-04   AT NODE        710   DOF  6
   INSTANCE: CF-1                                                                            
          ROTATION CORRECTION TOO LARGE COMPARED TO ROTATION INCREMENT

  NUMBER OF EQUATIONS =     31131     NUMBER OF RHS =    1
  NUMBER OF FLOATING PT. OPERATIONS =  7.27E+10

  USING THE DIRECT SOLVER WITH   6 PROCESSORS

     CHECK POINT   START OF SOLVER    

     CHECK POINT  END OF SOLVER       

       ELAPSED USER TIME (SEC)      =   8.9000    
       ELAPSED SYSTEM TIME (SEC)    =  0.10000    
       ELAPSED TOTAL CPU TIME (SEC) =   9.0000    
       ELAPSED WALLCLOCK TIME (SEC) =          1
 

 ***WARNING: SOLVER PROBLEM. NUMERICAL SINGULARITY WHEN PROCESSING NODE 
             ASSEMBLY.1 D.O.F. 6 RATIO = 16.2157E+09 .
  
     ASYNCHRONOUS TRACKING ELEMENT LOOP STARTED
  

               CONVERGENCE CHECKS FOR EQUILIBRIUM ITERATION     8

   MAX. PENETRATION ERROR -1.66758E-12 AT NODE BATTERY-1.412 OF CONTACT PAIR 
   (ASSEMBLY_BATTERY-1_BATBOT,ASSEMBLY_CF-1_CFTOP)
   MAX. CONTACT FORCE ERROR -2.23416E-09 AT NODE BATTERY-1.422 OF CONTACT PAIR 
   (ASSEMBLY_BATTERY-1_BATBOT,ASSEMBLY_CF-1_CFTOP)
          THE CONTACT CONSTRAINTS HAVE CONVERGED.

 AVERAGE FORCE                      0.203       TIME AVG. FORCE       0.203    
 LARGEST RESIDUAL FORCE            -1.289E-05   AT NODE          1   DOF  2
   INSTANCE:                                                                                 
 LARGEST INCREMENT OF DISP.        -0.248       AT NODE        563   DOF  3
   INSTANCE: POLYMER-1                                                                       
 LARGEST CORRECTION TO DISP.        1.062E-02   AT NODE        490   DOF  1
   INSTANCE: POLYMER-1                                                                       
          DISP.    CORRECTION TOO LARGE COMPARED TO DISP.    INCREMENT

 AVERAGE MOMENT                     0.140       TIME AVG. MOMENT      0.140    
 LARGEST RESIDUAL MOMENT           -6.072E-05   AT NODE          1   DOF  6
   INSTANCE:                                                                                 
 LARGEST INCREMENT OF ROTATION      8.381E-03   AT NODE          3   DOF  5
   INSTANCE: CF-1                                                                            
 LARGEST CORRECTION TO ROTATION     9.654E-05   AT NODE        710   DOF  6
   INSTANCE: CF-1                                                                            
          ROTATION CORRECTION TOO LARGE COMPARED TO ROTATION INCREMENT

  NUMBER OF EQUATIONS =     31131     NUMBER OF RHS =    1
  NUMBER OF FLOATING PT. OPERATIONS =  7.27E+10

  USING THE DIRECT SOLVER WITH   6 PROCESSORS

     CHECK POINT   START OF SOLVER    

     CHECK POINT  END OF SOLVER       

       ELAPSED USER TIME (SEC)      =   8.5000    
       ELAPSED SYSTEM TIME (SEC)    =  0.10000    
       ELAPSED TOTAL CPU TIME (SEC) =   8.6000    
       ELAPSED WALLCLOCK TIME (SEC) =          2
 

 ***WARNING: SOLVER PROBLEM. NUMERICAL SINGULARITY WHEN PROCESSING NODE 
             ASSEMBLY.1 D.O.F. 6 RATIO = 16.2155E+09 .
  
     ASYNCHRONOUS TRACKING ELEMENT LOOP STARTED
  

               CONVERGENCE CHECKS FOR EQUILIBRIUM ITERATION     9

   MAX. PENETRATION ERROR 865.590E-15   AT NODE BATTERY-1.3939 OF CONTACT PAIR 
   (ASSEMBLY_BATTERY-1_BATTOP,ASSEMBLY_CF-2_CFBOT)
   MAX. CONTACT FORCE ERROR -1.10026E-09 AT NODE BATTERY-1.551 OF CONTACT PAIR 
   (ASSEMBLY_BATTERY-1_BATBOT,ASSEMBLY_CF-1_CFTOP)
          THE CONTACT CONSTRAINTS HAVE CONVERGED.

 AVERAGE FORCE                      0.203       TIME AVG. FORCE       0.203    
 LARGEST RESIDUAL FORCE             1.138E-05   AT NODE          1   DOF  2
   INSTANCE:                                                                                 
 LARGEST INCREMENT OF DISP.        -0.248       AT NODE        563   DOF  3
   INSTANCE: POLYMER-1                                                                       
 LARGEST CORRECTION TO DISP.       -9.371E-03   AT NODE        490   DOF  1
   INSTANCE: POLYMER-1                                                                       
          DISP.    CORRECTION TOO LARGE COMPARED TO DISP.    INCREMENT

 AVERAGE MOMENT                     0.140       TIME AVG. MOMENT      0.140    
 LARGEST RESIDUAL MOMENT            5.352E-05   AT NODE          1   DOF  6
   INSTANCE:                                                                                 
 LARGEST INCREMENT OF ROTATION      8.381E-03   AT NODE          3   DOF  5
   INSTANCE: CF-1                                                                            
 LARGEST CORRECTION TO ROTATION    -8.519E-05   AT NODE        710   DOF  6
   INSTANCE: CF-1                                                                            
 ESTIMATE OF ROTATION CORRECTION    7.508E-05
 MOMENT    EQUILIB. ACCEPTED BASED ON SMALL RESIDUAL AND ESTIMATED CORRECTION

  NUMBER OF EQUATIONS =     31131     NUMBER OF RHS =    1
  NUMBER OF FLOATING PT. OPERATIONS =  7.27E+10

[...]

   MAX. PENETRATION ERROR -3.17933E-12 AT NODE BATTERY-1.2817 OF CONTACT PAIR 
   (ASSEMBLY_BATTERY-1_BATTOP,ASSEMBLY_CF-2_CFBOT)
   MAX. CONTACT FORCE ERROR -4.34576E-09 AT NODE BATTERY-1.422 OF CONTACT PAIR 
   (ASSEMBLY_BATTERY-1_BATBOT,ASSEMBLY_CF-1_CFTOP)
          THE CONTACT CONSTRAINTS HAVE CONVERGED.

 AVERAGE FORCE                      0.106       TIME AVG. FORCE       7.854E-02
 LARGEST RESIDUAL FORCE             5.661E-06   AT NODE        412   DOF  2
   INSTANCE: BATTERY-1                                                                       
 LARGEST INCREMENT OF DISP.         2.817E-02   AT NODE          7   DOF  1
   INSTANCE: CF-1                                                                            
 LARGEST CORRECTION TO DISP.        3.432E-02   AT NODE        156   DOF  1
   INSTANCE: CF-2                                                                            
          DISP.    CORRECTION TOO LARGE COMPARED TO DISP.    INCREMENT

 AVERAGE MOMENT                     3.701E-02   TIME AVG. MOMENT      3.620E-02
 LARGEST RESIDUAL MOMENT           -2.722E-05   AT NODE          1   DOF  6
   INSTANCE:                                                                                 
 LARGEST INCREMENT OF ROTATION      2.571E-04   AT NODE         66   DOF  6
   INSTANCE: CF-1                                                                            
 LARGEST CORRECTION TO ROTATION     3.120E-04   AT NODE        706   DOF  6
   INSTANCE: CF-1                                                                            
          ROTATION CORRECTION TOO LARGE COMPARED TO ROTATION INCREMENT

  NUMBER OF EQUATIONS =     31131     NUMBER OF RHS =    1
  NUMBER OF FLOATING PT. OPERATIONS =  9.26E+10

  USING THE DIRECT SOLVER WITH   6 PROCESSORS

     CHECK POINT   START OF SOLVER    

     CHECK POINT  END OF SOLVER       

       ELAPSED USER TIME (SEC)      =   10.900    
       ELAPSED SYSTEM TIME (SEC)    =   0.0000    
       ELAPSED TOTAL CPU TIME (SEC) =   10.900    
       ELAPSED WALLCLOCK TIME (SEC) =          2
 

 ***WARNING: SOLVER PROBLEM. NUMERICAL SINGULARITY WHEN PROCESSING NODE 
             ASSEMBLY.1 D.O.F. 6 RATIO = 753.459E+09  .
  
     ASYNCHRONOUS TRACKING ELEMENT LOOP STARTED
  

               CONVERGENCE CHECKS FOR EQUILIBRIUM ITERATION     3

   MAX. PENETRATION ERROR 8.67112E-12 AT NODE BATTERY-1.2817 OF CONTACT PAIR 
   (ASSEMBLY_BATTERY-1_BATTOP,ASSEMBLY_CF-2_CFBOT)
   MAX. CONTACT FORCE ERROR -10.4920E-09  AT NODE BATTERY-1.551 OF CONTACT PAIR 
   (ASSEMBLY_BATTERY-1_BATBOT,ASSEMBLY_CF-1_CFTOP)
          THE CONTACT CONSTRAINTS HAVE CONVERGED.

 AVERAGE FORCE                      0.106       TIME AVG. FORCE       7.854E-02
 LARGEST RESIDUAL FORCE            -1.809E-05   AT NODE        412   DOF  2
   INSTANCE: BATTERY-1                                                                       
 LARGEST INCREMENT OF DISP.         8.164E-02   AT NODE         94   DOF  2
   INSTANCE: CF-1                                                                            
 LARGEST CORRECTION TO DISP.       -0.110       AT NODE        156   DOF  1
   INSTANCE: CF-2                                                                            
          DISP.    CORRECTION TOO LARGE COMPARED TO DISP.    INCREMENT

 AVERAGE MOMENT                     3.701E-02   TIME AVG. MOMENT      3.620E-02
 LARGEST RESIDUAL MOMENT            8.712E-05   AT NODE          1   DOF  6
   INSTANCE:                                                                                 
 LARGEST INCREMENT OF ROTATION     -7.441E-04   AT NODE         94   DOF  6
   INSTANCE: CF-1                                                                            
 LARGEST CORRECTION TO ROTATION    -9.970E-04   AT NODE        706   DOF  6
   INSTANCE: CF-1                                                                            
          ROTATION CORRECTION TOO LARGE COMPARED TO ROTATION INCREMENT

  NUMBER OF EQUATIONS =     31131     NUMBER OF RHS =    1
  NUMBER OF FLOATING PT. OPERATIONS =  9.26E+10

  USING THE DIRECT SOLVER WITH   6 PROCESSORS

     CHECK POINT   START OF SOLVER    

     CHECK POINT  END OF SOLVER       

       ELAPSED USER TIME (SEC)      =   10.800    
       ELAPSED SYSTEM TIME (SEC)    =   0.0000    
       ELAPSED TOTAL CPU TIME (SEC) =   10.800    
       ELAPSED WALLCLOCK TIME (SEC) =          2
 

 ***WARNING: SOLVER PROBLEM. NUMERICAL SINGULARITY WHEN PROCESSING NODE 
             ASSEMBLY.1 D.O.F. 6 RATIO = 752.141E+09  .
  
     ASYNCHRONOUS TRACKING ELEMENT LOOP STARTED
  

               CONVERGENCE CHECKS FOR EQUILIBRIUM ITERATION     4

   MAX. PENETRATION ERROR -95.9415E-12  AT NODE BATTERY-1.412 OF CONTACT PAIR 
   (ASSEMBLY_BATTERY-1_BATBOT,ASSEMBLY_CF-1_CFTOP)
   MAX. CONTACT FORCE ERROR -128.484E-09   AT NODE BATTERY-1.412 OF CONTACT 
   PAIR (ASSEMBLY_BATTERY-1_BATBOT,ASSEMBLY_CF-1_CFTOP)
          THE CONTACT CONSTRAINTS HAVE CONVERGED.

 AVERAGE FORCE                      0.106       TIME AVG. FORCE       7.854E-02
 LARGEST RESIDUAL FORCE             5.764E-05   AT NODE        412   DOF  2
   INSTANCE: BATTERY-1                                                                       
 LARGEST INCREMENT OF DISP.         0.268       AT NODE          7   DOF  1
   INSTANCE: CF-1                                                                            
 LARGEST CORRECTION TO DISP.        0.350       AT NODE        156   DOF  1
   INSTANCE: CF-2                                                                            
          DISP.    CORRECTION TOO LARGE COMPARED TO DISP.    INCREMENT

 AVERAGE MOMENT                     3.701E-02   TIME AVG. MOMENT      3.620E-02
 LARGEST RESIDUAL MOMENT           -2.818E-04   AT NODE          1   DOF  4
   INSTANCE:                                                                                 
 LARGEST INCREMENT OF ROTATION      2.437E-03   AT NODE         66   DOF  6
   INSTANCE: CF-1                                                                            
 LARGEST CORRECTION TO ROTATION     3.177E-03   AT NODE        706   DOF  6
   INSTANCE: CF-1                                                                            
          MOMENT    EQUILIBRIUM NOT ACHIEVED WITHIN TOLERANCE.
 

 ***NOTE: THE SOLUTION APPEARS TO BE DIVERGING. CONVERGENCE IS JUDGED UNLIKELY.


  INCREMENT     2 STARTS. ATTEMPT NUMBER  5, TIME INCREMENT  9.766E-04
  
     ASYNCHRONOUS TRACKING ELEMENT LOOP STARTED
  

  NUMBER OF EQUATIONS =     31131     NUMBER OF RHS =    1
  NUMBER OF FLOATING PT. OPERATIONS =  9.26E+10

  USING THE DIRECT SOLVER WITH   6 PROCESSORS

     CHECK POINT   START OF SOLVER    

     CHECK POINT  END OF SOLVER       

       ELAPSED USER TIME (SEC)      =   10.800    
       ELAPSED SYSTEM TIME (SEC)    =  0.10000    
       ELAPSED TOTAL CPU TIME (SEC) =   10.900    
       ELAPSED WALLCLOCK TIME (SEC) =          2
 

 ***WARNING: SOLVER PROBLEM. NUMERICAL SINGULARITY WHEN PROCESSING NODE 
             ASSEMBLY.1 D.O.F. 6 RATIO = 786.958E+09  .
  
     ASYNCHRONOUS TRACKING ELEMENT LOOP STARTED
  

                    1 SEVERE DISCONTINUITIES OCCURRED DURING THIS ITERATION.
                    1 POINTS CHANGED FROM OPEN TO CLOSED

               CONVERGENCE CHECKS FOR SEVERE DISCONTINUITY ITERATION     1

   MAX. PENETRATION ERROR 125.621E-09   AT NODE BATTERY-1.483 OF CONTACT PAIR 
   (ASSEMBLY_BATTERY-1_BATBOT,ASSEMBLY_CF-1_CFTOP)
   MAX. CONTACT FORCE ERROR 87.6802E-06  AT NODE BATTERY-1.483 OF CONTACT PAIR 
   (ASSEMBLY_BATTERY-1_BATBOT,ASSEMBLY_CF-1_CFTOP)
          THE CONTACT CONSTRAINT ERRORS ARE WITHIN THE TOLERANCES.

 AVERAGE FORCE                      0.105       TIME AVG. FORCE       7.776E-02
 LARGEST RESIDUAL FORCE             1.061E-06   AT NODE          1   DOF  1
   INSTANCE:                                                                                 
 LARGEST INCREMENT OF DISP.         6.316E-03   AT NODE         94   DOF  2
   INSTANCE: CF-1                                                                            
 LARGEST CORRECTION TO DISP.        6.316E-03   AT NODE         94   DOF  2
   INSTANCE: CF-1                                                                            
          DISP.    CORRECTION TOO LARGE COMPARED TO DISP.    INCREMENT

 AVERAGE MOMENT                     3.658E-02   TIME AVG. MOMENT      3.598E-02
 LARGEST RESIDUAL MOMENT           -2.330E-05   AT NODE          1   DOF  6
   INSTANCE:                                                                                 
 LARGEST INCREMENT OF ROTATION     -5.793E-05   AT NODE         94   DOF  6
   INSTANCE: CF-1                                                                            
 LARGEST CORRECTION TO ROTATION    -5.793E-05   AT NODE         94   DOF  6
   INSTANCE: CF-1                                                                            
 ESTIMATE OF ROTATION CORRECTION    2.360E-07
 MOMENT    EQUILIB. ACCEPTED BASED ON SMALL RESIDUAL AND ESTIMATED CORRECTION

  NUMBER OF EQUATIONS =     31131     NUMBER OF RHS =    1
  NUMBER OF FLOATING PT. OPERATIONS =  9.26E+10

  USING THE DIRECT SOLVER WITH   6 PROCESSORS

     CHECK POINT   START OF SOLVER    

     CHECK POINT  END OF SOLVER       

       ELAPSED USER TIME (SEC)      =   10.600    
       ELAPSED SYSTEM TIME (SEC)    =  0.10000    
       ELAPSED TOTAL CPU TIME (SEC) =   10.700    
       ELAPSED WALLCLOCK TIME (SEC) =          2
 

 ***WARNING: SOLVER PROBLEM. NUMERICAL SINGULARITY WHEN PROCESSING NODE 
             ASSEMBLY.1 D.O.F. 6 RATIO = 779.720E+09  .
  
     ASYNCHRONOUS TRACKING ELEMENT LOOP STARTED
  

               CONVERGENCE CHECKS FOR EQUILIBRIUM ITERATION     1

   MAX. PENETRATION ERROR -1.94318E-12 AT NODE BATTERY-1.2817 OF CONTACT PAIR 
   (ASSEMBLY_BATTERY-1_BATTOP,ASSEMBLY_CF-2_CFBOT)
   MAX. CONTACT FORCE ERROR -2.52888E-09 AT NODE BATTERY-1.422 OF CONTACT PAIR 
   (ASSEMBLY_BATTERY-1_BATBOT,ASSEMBLY_CF-1_CFTOP)
          THE CONTACT CONSTRAINTS HAVE CONVERGED.

 AVERAGE FORCE                      0.105       TIME AVG. FORCE       7.776E-02
 LARGEST RESIDUAL FORCE             3.483E-06   AT NODE        412   DOF  2
   INSTANCE: BATTERY-1                                                                       
 LARGEST INCREMENT OF DISP.         1.510E-02   AT NODE          7   DOF  1
   INSTANCE: CF-1                                                                            
 LARGEST CORRECTION TO DISP.        2.138E-02   AT NODE        156   DOF  1
   INSTANCE: CF-2                                                                            
          DISP.    CORRECTION TOO LARGE COMPARED TO DISP.    INCREMENT

 AVERAGE MOMENT                     3.658E-02   TIME AVG. MOMENT      3.598E-02
 LARGEST RESIDUAL MOMENT           -1.668E-05   AT NODE          1   DOF  6
   INSTANCE:                                                                                 
 LARGEST INCREMENT OF ROTATION      1.375E-04   AT NODE         66   DOF  6
   INSTANCE: CF-1                                                                            
 LARGEST CORRECTION TO ROTATION     1.943E-04   AT NODE        706   DOF  6
   INSTANCE: CF-1                                                                            
          ROTATION CORRECTION TOO LARGE COMPARED TO ROTATION INCREMENT

  NUMBER OF EQUATIONS =     31131     NUMBER OF RHS =    1
  NUMBER OF FLOATING PT. OPERATIONS =  9.26E+10

  USING THE DIRECT SOLVER WITH   6 PROCESSORS

     CHECK POINT   START OF SOLVER    

     CHECK POINT  END OF SOLVER       

       ELAPSED USER TIME (SEC)      =   11.100    
       ELAPSED SYSTEM TIME (SEC)    =   0.0000    
       ELAPSED TOTAL CPU TIME (SEC) =   11.100    
       ELAPSED WALLCLOCK TIME (SEC) =          2
 

 ***WARNING: SOLVER PROBLEM. NUMERICAL SINGULARITY WHEN PROCESSING NODE 
             ASSEMBLY.1 D.O.F. 6 RATIO = 775.356E+09  .
  
     ASYNCHRONOUS TRACKING ELEMENT LOOP STARTED
  

               CONVERGENCE CHECKS FOR EQUILIBRIUM ITERATION     2

   MAX. PENETRATION ERROR 5.65138E-12 AT NODE BATTERY-1.2817 OF CONTACT PAIR 
   (ASSEMBLY_BATTERY-1_BATTOP,ASSEMBLY_CF-2_CFBOT)
   MAX. CONTACT FORCE ERROR 4.57632E-09 AT NODE BATTERY-1.422 OF CONTACT PAIR 
   (ASSEMBLY_BATTERY-1_BATBOT,ASSEMBLY_CF-1_CFTOP)
          THE CONTACT CONSTRAINTS HAVE CONVERGED.

 AVERAGE FORCE                      0.105       TIME AVG. FORCE       7.776E-02
 LARGEST RESIDUAL FORCE            -1.115E-05   AT NODE        412   DOF  2
   INSTANCE: BATTERY-1                                                                       
 LARGEST INCREMENT OF DISP.         5.336E-02   AT NODE         94   DOF  2
   INSTANCE: CF-1                                                                            
 LARGEST CORRECTION TO DISP.       -6.842E-02   AT NODE        156   DOF  1
   INSTANCE: CF-2                                                                            
          DISP.    CORRECTION TOO LARGE COMPARED TO DISP.    INCREMENT

 AVERAGE MOMENT                     3.658E-02   TIME AVG. MOMENT      3.598E-02
 LARGEST RESIDUAL MOMENT            5.344E-05   AT NODE          1   DOF  6
   INSTANCE:                                                                                 
 LARGEST INCREMENT OF ROTATION     -4.856E-04   AT NODE         94   DOF  6
   INSTANCE: CF-1                                                                            
 LARGEST CORRECTION TO ROTATION    -6.220E-04   AT NODE        706   DOF  6
   INSTANCE: CF-1                                                                            
          ROTATION CORRECTION TOO LARGE COMPARED TO ROTATION INCREMENT

  NUMBER OF EQUATIONS =     31131     NUMBER OF RHS =    1
  NUMBER OF FLOATING PT. OPERATIONS =  9.26E+10

  USING THE DIRECT SOLVER WITH   6 PROCESSORS

     CHECK POINT   START OF SOLVER    

     CHECK POINT  END OF SOLVER       

       ELAPSED USER TIME (SEC)      =   10.900    
       ELAPSED SYSTEM TIME (SEC)    =  0.10000    
       ELAPSED TOTAL CPU TIME (SEC) =   11.000    
       ELAPSED WALLCLOCK TIME (SEC) =          2
 

 ***WARNING: SOLVER PROBLEM. NUMERICAL SINGULARITY WHEN PROCESSING NODE 
             ASSEMBLY.1 D.O.F. 6 RATIO = 780.254E+09  .
  
     ASYNCHRONOUS TRACKING ELEMENT LOOP STARTED
  

               CONVERGENCE CHECKS FOR EQUILIBRIUM ITERATION     3

   MAX. PENETRATION ERROR -40.7629E-12  AT NODE BATTERY-1.412 OF CONTACT PAIR 
   (ASSEMBLY_BATTERY-1_BATBOT,ASSEMBLY_CF-1_CFTOP)
   MAX. CONTACT FORCE ERROR -54.5894E-09  AT NODE BATTERY-1.412 OF CONTACT PAIR 
   (ASSEMBLY_BATTERY-1_BATBOT,ASSEMBLY_CF-1_CFTOP)
          THE CONTACT CONSTRAINTS HAVE CONVERGED.

 AVERAGE FORCE                      0.105       TIME AVG. FORCE       7.776E-02
 LARGEST RESIDUAL FORCE             3.584E-05   AT NODE        412   DOF  2
   INSTANCE: BATTERY-1                                                                       
 LARGEST INCREMENT OF DISP.         0.167       AT NODE          7   DOF  1
   INSTANCE: CF-1                                                                            
 LARGEST CORRECTION TO DISP.        0.220       AT NODE        156   DOF  1
   INSTANCE: CF-2                                                                            
          DISP.    CORRECTION TOO LARGE COMPARED TO DISP.    INCREMENT

 AVERAGE MOMENT                     3.658E-02   TIME AVG. MOMENT      3.598E-02
 LARGEST RESIDUAL MOMENT           -1.713E-04   AT NODE          1   DOF  6
   INSTANCE:                                                                                 
 LARGEST INCREMENT OF ROTATION      1.515E-03   AT NODE         66   DOF  6
   INSTANCE: CF-1                                                                            
 LARGEST CORRECTION TO ROTATION     2.000E-03   AT NODE        706   DOF  6
   INSTANCE: CF-1                                                                            
          ROTATION CORRECTION TOO LARGE COMPARED TO ROTATION INCREMENT

  NUMBER OF EQUATIONS =     31131     NUMBER OF RHS =    1
  NUMBER OF FLOATING PT. OPERATIONS =  9.26E+10

  USING THE DIRECT SOLVER WITH   6 PROCESSORS

     CHECK POINT   START OF SOLVER    

     CHECK POINT  END OF SOLVER       

       ELAPSED USER TIME (SEC)      =   11.200    
       ELAPSED SYSTEM TIME (SEC)    =  0.10000    
       ELAPSED TOTAL CPU TIME (SEC) =   11.300    
       ELAPSED WALLCLOCK TIME (SEC) =          2
 

 ***WARNING: SOLVER PROBLEM. NUMERICAL SINGULARITY WHEN PROCESSING NODE 
             ASSEMBLY.1 D.O.F. 6 RATIO = 776.181E+09  .
  
     ASYNCHRONOUS TRACKING ELEMENT LOOP STARTED
  

               CONVERGENCE CHECKS FOR EQUILIBRIUM ITERATION     4

   MAX. PENETRATION ERROR -333.999E-12   AT NODE BATTERY-1.519 OF CONTACT PAIR 
   (ASSEMBLY_BATTERY-1_BATBOT,ASSEMBLY_CF-1_CFTOP)
   MAX. CONTACT FORCE ERROR -459.248E-09   AT NODE BATTERY-1.551 OF CONTACT 
   PAIR (ASSEMBLY_BATTERY-1_BATBOT,ASSEMBLY_CF-1_CFTOP)
          THE CONTACT CONSTRAINTS HAVE CONVERGED.

 AVERAGE FORCE                      0.105       TIME AVG. FORCE       7.776E-02
 LARGEST RESIDUAL FORCE             1.500E-04   AT NODE          1   DOF  3
   INSTANCE:                                                                                 
 LARGEST INCREMENT OF DISP.         0.538       AT NODE         94   DOF  2
   INSTANCE: CF-1                                                                            
 LARGEST CORRECTION TO DISP.       -0.705       AT NODE        156   DOF  1
   INSTANCE: CF-2                                                                            
          DISP.    CORRECTION TOO LARGE COMPARED TO DISP.    INCREMENT

 AVERAGE MOMENT                     3.658E-02   TIME AVG. MOMENT      3.598E-02
 LARGEST RESIDUAL MOMENT           -1.253E-03   AT NODE          1   DOF  4
   INSTANCE:                                                                                 
 LARGEST INCREMENT OF ROTATION     -4.895E-03   AT NODE         93   DOF  6
   INSTANCE: CF-1                                                                            
 LARGEST CORRECTION TO ROTATION    -6.409E-03   AT NODE        706   DOF  6
   INSTANCE: CF-1                                                                            
          MOMENT    EQUILIBRIUM NOT ACHIEVED WITHIN TOLERANCE.
 

 ***NOTE: THE SOLUTION APPEARS TO BE DIVERGING. CONVERGENCE IS JUDGED UNLIKELY.
 

 ***ERROR: TOO MANY ATTEMPTS MADE FOR THIS INCREMENT
  
     ASYNCHRONOUS TRACKING ELEMENT LOOP STARTED
  
 

 ***WARNING: SOLVER PROBLEM. NUMERICAL SINGULARITY WHEN PROCESSING NODE 
             ASSEMBLY.1 D.O.F. 6 RATIO = 97.8262E+09 .

 ***ERROR: THE ANALYSIS HAS BEEN TERMINATED DUE TO PREVIOUS ERRORS. ALL OUTPUT 
           REQUESTS HAVE BEEN WRITTEN FOR THE LAST CONVERGED INCREMENT.



     ANALYSIS SUMMARY:
     TOTAL OF          2  INCREMENTS
                       6  CUTBACKS IN AUTOMATIC INCREMENTATION
                      85  ITERATIONS INCLUDING CONTACT ITERATIONS IF PRESENT
                      85  PASSES THROUGH THE EQUATION SOLVER OF WHICH 
                      85  INVOLVE MATRIX DECOMPOSITION, INCLUDING
                       0  DECOMPOSITION(S) OF THE MASS MATRIX
                       1  REORDERING OF EQUATIONS TO MINIMIZE WAVEFRONT
                       0  ADDITIONAL RESIDUAL EVALUATIONS FOR LINE SEARCHES
                       0  ADDITIONAL OPERATOR EVALUATIONS FOR LINE SEARCHES
                       0  WARNING MESSAGES DURING USER INPUT PROCESSING
                      87  WARNING MESSAGES DURING ANALYSIS
                      85  ANALYSIS WARNINGS ARE NUMERICAL PROBLEM MESSAGES
                       0  ANALYSIS WARNINGS ARE NEGATIVE EIGENVALUE MESSAGES
                       2  ERROR MESSAGES



     JOB TIME SUMMARY
       USER TIME (SEC)      =   1206.4    
       SYSTEM TIME (SEC)    =   18.400    
       TOTAL CPU TIME (SEC) =   1224.8    
       WALLCLOCK TIME (SEC) =        239
