 Abaqus/Standard 3DEXPERIENCE R2019x                  DATE 29-May-2019 TIME 18:02:27
 SUMMARY OF JOB INFORMATION:
 STEP  INC ATT SEVERE EQUIL TOTAL  TOTAL      STEP       INC OF       DOF    IF
               DISCON ITERS ITERS  TIME/    TIME/LPF    TIME/LPF    MONITOR RIKS
               ITERS               FREQ
   1     1   1U   18    16    34  0.000      0.000      1.000     
   1     1   2U   19    16    35  0.000      0.000      0.2500    
   1     1   3U   13     1    14  0.000      0.000      0.06250   
   1     1   4U   18     3    21  0.000      0.000      0.01563   
   1     1   5U   16     5    21  0.000      0.000      0.003906  
                          
 THE ANALYSIS HAS NOT BEEN COMPLETED
