*Heading
** Job name: Job-24 Model name: Model-1
** Generated by: Abaqus/CAE 2019
*Preprint, echo=NO, model=NO, history=NO, contact=NO
**
** PARTS
**
*Part, name=Battery
*Node
      1,   12.3461733,   10.8174877,           0.
      2,   9.88441467,   12.6060591,           0.
      3,   6.84151363,   12.6060591,           0.
      4,    4.3797555,   10.8174877,           0.
      5,    3.4394474,   7.92351675,           0.
      6,    4.3797555,   5.02954626,           0.
      7,   6.84151363,   3.24097395,           0.
      8,   9.88441467,   3.24097395,           0.
      9,   12.3461733,   5.02954626,           0.
     10,   13.2864809,   7.92351675,           0.
     11,   25.1026993,   86.1213226,           0.
     12,   22.9813786,          87.,           0.
     13,   20.8600578,   86.1213226,           0.
     14,   19.9813786,          84.,           0.
     15,   20.8600578,   81.8786774,           0.
     16,   22.9813786,          81.,           0.
     17,   25.1026993,   81.8786774,           0.
     18,   25.9813786,          84.,           0.
     19,   53.8307381,   70.8527603,           0.
     20,   51.5146294,   72.5355148,           0.
** ... 3688 like lines cut
*Element, type=C3D8R
   1,  222,   86,   85,  190, 1458, 1322, 1321, 1426
   2,   81,  287,  191,   82, 1317, 1523, 1427, 1318
   3,  221,   83,   82,  191, 1457, 1319, 1318, 1427
   4,  283,  181,   24,   23, 1519, 1417, 1260, 1259
   5,  458,  376,  163,  280, 1694, 1612, 1399, 1516
   6,   18,   17,  280,  163, 1254, 1253, 1516, 1399
   7,   18,  163,  370,  164, 1254, 1399, 1606, 1400
   8,  314,  241,  240,  343, 1550, 1477, 1476, 1579
   9,   12,   11,  281,  276, 1248, 1247, 1517, 1512
  10,   11,   18,  164,  281, 1247, 1254, 1400, 1517
  11,   22,   21, 1113,  184, 1258, 1257, 2349, 1420
  12,  302,  240,  117,  116, 1538, 1476, 1353, 1352
  13,  519,  413,  366,  368, 1755, 1649, 1602, 1604
  14,   34,   33, 1109,  174, 1270, 1269, 2345, 1410
  15,  287,   81,   80,  192, 1523, 1317, 1316, 1428
  16,  382,  192,  220,  289, 1618, 1428, 1456, 1525
  17,   95,  231,  232,   96, 1331, 1467, 1468, 1332
  18,   91,  227,  228,   92, 1327, 1463, 1464, 1328
  19,    5,    4,  220,  277, 1241, 1240, 1456, 1513
  20,  277, 1102,    6,    5, 1513, 2338, 1242, 1241
** ... 2296 like lines cut
*Nset, nset=Batset, generate
    1,  3708,     1
*Elset, elset=Batset, generate
    1,  2316,     1
*Elset, elset=_BatTop_S2, internal, generate
 1159,  2316,     1
*Surface, type=ELEMENT, name=BatTop
_BatTop_S2, S2
*Elset, elset=_BatBot_S1, internal, generate
    1,  1158,     1
*Surface, type=ELEMENT, name=BatBot
_BatBot_S1, S1
*Elset, elset=_Battery-rivet-0_S3, internal
   14,   27,   45,   52,   55, 1172, 1185, 1203, 1210, 1213
*Elset, elset=_Battery-rivet-0_S6, internal
   24,   59, 1182, 1217
*Elset, elset=_Battery-rivet-0_S5, internal
   26,  155, 1184, 1313
*Elset, elset=_Battery-rivet-0_S4, internal
   42,   61,  132,  157,  160, 1200, 1219, 1290, 1315, 1318
*Surface, type=ELEMENT, name=Battery-rivet-0
_Battery-rivet-0_S3, S3
_Battery-rivet-0_S6, S6
_Battery-rivet-0_S4, S4
_Battery-rivet-0_S5, S5
*Elset, elset=_Battery-rivet-1_S5, internal
    4,  174, 1162, 1332
*Elset, elset=_Battery-rivet-1_S3, internal
   11,  112,  125, 1169, 1270, 1283
*Elset, elset=_Battery-rivet-1_S4, internal
  169,  171,  173,  177,  179, 1327, 1329, 1331, 1335, 1337
*Surface, type=ELEMENT, name=Battery-rivet-1
_Battery-rivet-1_S5, S5
_Battery-rivet-1_S3, S3
_Battery-rivet-1_S4, S4
*Elset, elset=_Battery-rivet-2_S3, internal
    6,    9,   10, 1164, 1167, 1168
*Elset, elset=_Battery-rivet-2_S4, internal
   31,   50,  147,  151, 1189, 1208, 1305, 1309
*Elset, elset=_Battery-rivet-2_S6, internal
  100, 1258
*Surface, type=ELEMENT, name=Battery-rivet-2
_Battery-rivet-2_S3, S3
_Battery-rivet-2_S4, S4
_Battery-rivet-2_S6, S6
*Elset, elset=_Battery-rivet-3_S3, internal
   19,   74,   77, 1177, 1232, 1235
*Elset, elset=_Battery-rivet-3_S5, internal
   20,  184,  206,  264, 1178, 1342, 1364, 1422
*Elset, elset=_Battery-rivet-3_S4, internal
   73,  261, 1231, 1419
*Elset, elset=_Battery-rivet-3_S6, internal
  209, 1367
*Surface, type=ELEMENT, name=Battery-rivet-3
_Battery-rivet-3_S3, S3
_Battery-rivet-3_S5, S5
_Battery-rivet-3_S4, S4
_Battery-rivet-3_S6, S6
*Orientation, name=Ori-1
1., 0., 0., 0., 1., 0.
3, 0.
** Section: BatOrtho
*Solid Section, elset=Batset, orientation=Ori-1, material=BatOrtho
,
*End Part
**  
*Part, name=CF
*Node
      1,         52.5,           0.,           0.
      2,         52.5,         110.,           0.
      3,           0.,         110.,           0.
      4,           0.,           0.,           0.
      5,         57.5,           0.,           0.
      6,         57.5,         110.,           0.
      7,         110.,           0.,           0.
      8,         110.,         110.,           0.
      9,         52.5,   2.97297287,           0.
     10,         52.5,   5.94594574,           0.
     11,         52.5,   8.91891861,           0.
     12,         52.5,   11.8918915,           0.
     13,         52.5,   14.8648653,           0.
     14,         52.5,   17.8378372,           0.
     15,         52.5,   20.8108101,           0.
     16,         52.5,    23.783783,           0.
     17,         52.5,   26.7567558,           0.
     18,         52.5,   29.7297306,           0.
     19,         52.5,   32.7027016,           0.
     20,         52.5,   35.6756744,           0.
** ... 1462 like lines cut
*Element, type=S4R
  1,   1,   9, 223, 114
  2,   9,  10, 224, 223
  3,  10,  11, 225, 224
  4,  11,  12, 226, 225
  5,  12,  13, 227, 226
  6,  13,  14, 228, 227
  7,  14,  15, 229, 228
  8,  15,  16, 230, 229
  9,  16,  17, 231, 230
 10,  17,  18, 232, 231
 11,  18,  19, 233, 232
 12,  19,  20, 234, 233
 13,  20,  21, 235, 234
 14,  21,  22, 236, 235
 15,  22,  23, 237, 236
 16,  23,  24, 238, 237
 17,  24,  25, 239, 238
 18,  25,  26, 240, 239
 19,  26,  27, 241, 240
 20,  27,  28, 242, 241
** ... 1386 like lines cut
*Nset, nset=CF_set, generate
    1,  1482,     1
*Elset, elset=CF_set, generate
    1,  1406,     1
*Elset, elset=_CFtop_SPOS, internal, generate
    1,  1406,     1
*Surface, type=ELEMENT, name=CFtop
_CFtop_SPOS, SPOS
*Elset, elset=_CFbot_SNEG, internal, generate
    1,  1406,     1
*Surface, type=ELEMENT, name=CFbot
_CFbot_SNEG, SNEG
** Section: CF_sec
*Shell Section, elset=CF_set, composite
0.2, 3, CF_material, 0.
0.2, 3, CF_material, 90.
0.2, 3, CF_material, 90.
0.2, 3, CF_material, 0.
*End Part
**  
*Part, name=Polymer
*Node
      1,   35.9813805,          94.,           0.
      2,   35.9813805,          94.,           5.
      3,   72.8556519,   19.3484459,           0.
      4,   72.8556519,   19.3484459,           5.
      5,          10.,         100.,           0.
      6,          10.,          10.,           0.
      7,         100.,          10.,           0.
      8,         100.,         100.,           0.
      9,         110.,           0.,           0.
     10,           0.,           0.,           0.
     11,           0.,         110.,           0.
     12,         110.,         110.,           0.
     13,          10.,          10.,           5.
     14,          10.,         100.,           5.
     15,         100.,         100.,           5.
     16,         100.,          10.,           5.
     17,           0.,         110.,           5.
     18,           0.,           0.,           5.
     19,         110.,           0.,           5.
     20,         110.,         110.,           5.
** ... 2209 like lines cut
*Element, type=C3D8R
1, 1797,  635,  634,  633,  629,   28,   27,   26
2,  632,  631, 1797,  633,   25,    1,  629,   26
3,  638,  637, 1797,  631,   31,   30,  629,    1
4, 1797,  637,  636,  635,  629,   30,   29,   28
5,  630,   35,   36,   37, 1797,  635,  634,  633
6,   38,    2,  630,   37,  632,  631, 1797,  633
7,   32,   33,  630,    2,  638,  637, 1797,  631
8,  630,   33,   34,   35, 1797,  637,  636,  635
 9,  691, 1814, 1798,  692,   50,  655,  639,   51
10, 1815, 1813, 1817, 1814,  656,  654,  658,  655
11,  687, 1811, 1812,  688,   46,  652,  653,   47
12, 1800, 1799, 1811, 1810,  641,  640,  652,  651
13, 1800, 1808, 1807, 1804,  641,  649,  648,  645
14,  679, 1806, 1802,  680,    3,  647,  643,   39
15, 1806, 1804, 1816, 1802,  647,  645,  657,  643
16, 1813, 1812, 1803, 1817,  654,  653,  644,  658
17, 1804, 1805, 1799, 1800,  645,  646,  640,  641
18,  692, 1798, 1806,  679,   51,  639,  647,    3
19,  686, 1810, 1811,  687,   45,  651,  652,   46
20, 1809, 1810,  686,  685,  650,  651,   45,   44
** ... 1148 like lines cut
*Nset, nset=PolySet
    5,    6,    7,    8,    9,   10,   11,   12,   13,   14,   15,   16,   17,   18,   19,   20
   65,   66,   67,   68,   69,   70,   71,   72,   73,   74,   75,   76,   77,   78,   79,   80
   81,   82,   83,   84,   85,   86,   87,   88,   89,   90,   91,   92,   93,   94,   95,   96
   97,   98,   99,  100,  101,  102,  103,  104,  105,  106,  107,  108,  109,  110,  111,  112
  113,  114,  115,  116,  117,  118,  119,  120,  121,  122,  123,  124,  125,  126,  127,  128
  129,  130,  131,  132,  133,  134,  135,  136,  137,  138,  139,  140,  141,  142,  143,  144
  145,  146,  147,  148,  149,  150,  151,  152,  153,  154,  155,  156,  157,  158,  159,  160
  161,  162,  163,  164,  165,  166,  167,  168,  169,  170,  171,  172,  173,  174,  175,  176
  177,  178,  179,  180,  181,  182,  183,  184,  185,  186,  187,  188,  189,  190,  191,  192
  193,  194,  195,  196,  197,  198,  199,  200,  201,  202,  203,  204,  205,  206,  207,  208
  209,  210,  211,  212,  213,  214,  215,  216,  217,  218,  219,  220,  221,  222,  223,  224
  225,  226,  227,  228,  229,  230,  231,  232,  233,  234,  235,  236,  237,  238,  239,  240
  241,  242,  243,  244,  245,  246,  247,  248,  249,  250,  251,  252,  253,  254,  255,  256
  257,  258,  259,  260,  261,  262,  263,  264,  265,  266,  267,  268,  269,  270,  271,  272
  273,  274,  275,  276,  277,  278,  279,  280,  281,  282,  283,  284,  285,  286,  287,  288
  289,  290,  291,  292,  293,  294,  295,  296,  297,  298,  299,  300,  301,  302,  303,  304
  305,  306,  307,  308,  309,  310,  311,  312,  313,  314,  315,  316,  317,  318,  319,  320
  321,  322,  323,  324,  325,  326,  327,  328,  329,  330,  331,  332,  333,  334,  335,  336
  337,  338,  339,  340,  341,  342,  343,  344,  345,  346,  347,  348,  349,  350,  351,  352
  353,  354,  355,  356,  357,  358,  359,  360,  361,  362,  363,  364,  365,  366,  367,  368
** ... 106 like lines cut
*Elset, elset=PolySet, generate
   61,  1132,     1
*Nset, nset=_PickedSet12, internal
    3,    4,   39,   40,   41,   42,   43,   44,   45,   46,   47,   48,   49,   50,   51,   52
   53,   54,   55,   56,   57,   58,   59,   60,   61,   62,   63,   64,  639,  640,  641,  642
  643,  644,  645,  646,  647,  648,  649,  650,  651,  652,  653,  654,  655,  656,  657,  658
  659,  660,  661,  662,  663,  664,  665,  666,  667,  668,  669,  670,  671,  672,  673,  674
  675,  676,  677,  678,  679,  680,  681,  682,  683,  684,  685,  686,  687,  688,  689,  690
  691,  692, 1798, 1799, 1800, 1801, 1802, 1803, 1804, 1805, 1806, 1807, 1808, 1809, 1810, 1811
 1812, 1813, 1814, 1815, 1816, 1817
*Elset, elset=_PickedSet12, internal, generate
  9,  60,   1
*Nset, nset=_PickedSet17, internal
   21,   22,  593,  594,  595,  596,  597,  598,  599,  600,  601,  602,  603,  604,  605,  606
  607,  608,  609,  610, 1757, 1758, 1759, 1760, 1761, 1762, 1763, 1764, 1765, 1766, 1767, 1768
 1769, 1770, 1771, 1772, 1773, 1774, 1775, 1776, 1777, 1778, 2220, 2221, 2222, 2223, 2224, 2225
*Elset, elset=_PickedSet17, internal, generate
 1133,  1152,     1
*Nset, nset=_PickedSet22, internal
    1,    2,   25,   26,   27,   28,   29,   30,   31,   32,   33,   34,   35,   36,   37,   38
  629,  630,  631,  632,  633,  634,  635,  636,  637,  638, 1797
*Elset, elset=_PickedSet22, internal, generate
 1,  8,  1
*Nset, nset=_PickedSet27, internal
   23,   24,  611,  612,  613,  614,  615,  616,  617,  618,  619,  620,  621,  622,  623,  624
  625,  626,  627,  628, 1779, 1780, 1781, 1782, 1783, 1784, 1785, 1786, 1787, 1788, 1789, 1790
 1791, 1792, 1793, 1794, 1795, 1796, 2226, 2227, 2228, 2229
*Elset, elset=_PickedSet27, internal, generate
 1153,  1168,     1
*Elset, elset=_PolyTop_S2, internal, generate
  597,  1132,     1
*Surface, type=ELEMENT, name=PolyTop
_PolyTop_S2, S2
*Elset, elset=_PolyBot_S1, internal, generate
  61,  596,    1
*Surface, type=ELEMENT, name=PolyBot
_PolyBot_S1, S1
*Elset, elset=_Polymer-rivet-0_S6, internal
  9, 11, 14, 18, 19, 26, 28, 32, 35, 37, 40, 44, 45, 52, 54, 58
*Elset, elset=_Polymer-rivet-0_S5, internal
 20, 23, 24, 46, 49, 50
*Elset, elset=_Polymer-rivet-0_S3, internal
 29, 30, 55, 56
*Elset, elset=_Polymer-rivet-0_S4, internal
 33, 59
*Surface, type=ELEMENT, name=Polymer-rivet-0
_Polymer-rivet-0_S6, S6
_Polymer-rivet-0_S5, S5
_Polymer-rivet-0_S4, S4
_Polymer-rivet-0_S3, S3
*Elset, elset=_Polymer-rivet-top-0_S1, internal, generate
 35,  60,   1
*Surface, type=ELEMENT, name=Polymer-rivet-top-0
_Polymer-rivet-top-0_S1, S1
*Elset, elset=_Polymer-rivet-bot-0_S2, internal, generate
  9,  34,   1
*Surface, type=ELEMENT, name=Polymer-rivet-bot-0
_Polymer-rivet-bot-0_S2, S2
*Elset, elset=_Polymer-rivet-1_S4, internal
 1133, 1136, 1137, 1140, 1142, 1143, 1146, 1147, 1150, 1152
*Elset, elset=_Polymer-rivet-1_S5, internal
 1133, 1138, 1139, 1140, 1143, 1148, 1149, 1150
*Elset, elset=_Polymer-rivet-1_S3, internal
 1141, 1151
*Surface, type=ELEMENT, name=Polymer-rivet-1
_Polymer-rivet-1_S4, S4
_Polymer-rivet-1_S5, S5
_Polymer-rivet-1_S3, S3
*Elset, elset=_Polymer-rivet-top-1_S1, internal, generate
 1143,  1152,     1
*Surface, type=ELEMENT, name=Polymer-rivet-top-1
_Polymer-rivet-top-1_S1, S1
*Elset, elset=_Polymer-rivet-bot-1_S2, internal, generate
 1133,  1142,     1
*Surface, type=ELEMENT, name=Polymer-rivet-bot-1
_Polymer-rivet-bot-1_S2, S2
*Elset, elset=_Polymer-rivet-2_S4, internal
 1, 4, 5, 8
*Elset, elset=_Polymer-rivet-2_S5, internal
 1, 4, 5, 8
*Elset, elset=_Polymer-rivet-2_S3, internal
 2, 3, 6, 7
*Elset, elset=_Polymer-rivet-2_S6, internal
 2, 3, 6, 7
*Surface, type=ELEMENT, name=Polymer-rivet-2
_Polymer-rivet-2_S4, S4
_Polymer-rivet-2_S5, S5
_Polymer-rivet-2_S6, S6
_Polymer-rivet-2_S3, S3
*Elset, elset=_Polymer-rivet-top-2_S1, internal, generate
 5,  8,  1
*Surface, type=ELEMENT, name=Polymer-rivet-top-2
_Polymer-rivet-top-2_S1, S1
*Elset, elset=_Polymer-rivet-bot-2_S2, internal, generate
 1,  4,  1
*Surface, type=ELEMENT, name=Polymer-rivet-bot-2
_Polymer-rivet-bot-2_S2, S2
*Elset, elset=_Polymer-rivet-3_S4, internal
 1153, 1155, 1156, 1159, 1161, 1163, 1164, 1167
*Elset, elset=_Polymer-rivet-3_S5, internal
 1153, 1154, 1156, 1159, 1160, 1161, 1162, 1164, 1167, 1168
*Elset, elset=_Polymer-rivet-3_S6, internal
 1157, 1165
*Surface, type=ELEMENT, name=Polymer-rivet-3
_Polymer-rivet-3_S4, S4
_Polymer-rivet-3_S5, S5
_Polymer-rivet-3_S6, S6
*Elset, elset=_Polymer-rivet-top-3_S1, internal, generate
 1161,  1168,     1
*Surface, type=ELEMENT, name=Polymer-rivet-top-3
_Polymer-rivet-top-3_S1, S1
*Elset, elset=_Polymer-rivet-bot-3_S2, internal, generate
 1153,  1160,     1
*Surface, type=ELEMENT, name=Polymer-rivet-bot-3
_Polymer-rivet-bot-3_S2, S2
** Section: PolySec
*Solid Section, elset=_PickedSet22, material=Polymer
,
** Section: PolySec
*Solid Section, elset=_PickedSet12, material=Polymer
,
** Section: PolySec
*Solid Section, elset=PolySet, material=Polymer
,
** Section: PolySec
*Solid Section, elset=_PickedSet17, material=Polymer
,
** Section: PolySec
*Solid Section, elset=_PickedSet27, material=Polymer
,
*End Part
**  
**
** ASSEMBLY
**
*Assembly, name=Assembly
**  
*Instance, name=Polymer-1, part=Polymer
*End Instance
**  
*Instance, name=Battery-1, part=Battery
         10.,          10.,           0.
*End Instance
**  
*Instance, name=CF-1, part=CF
          0.,           0.,         -0.4
*End Instance
**  
*Instance, name=CF-2, part=CF
          0.,           0.,          5.4
*End Instance
**  
*Node
      1,          55.,          55.,    5.4000001
*Nset, nset=VerticalSupport, instance=CF-1
   3,   4,   7,   8,  62,  63,  64,  65,  66,  67,  68,  69,  70,  71,  72,  73
  74,  75,  76,  77,  78,  79,  80,  81,  82,  83,  84,  85,  86,  87,  88,  89
  90,  91,  92,  93,  94,  95,  96,  97, 170, 171, 172, 173, 174, 175, 176, 177
 178, 179, 180, 181, 182, 183, 184, 185, 186, 187, 188, 189, 190, 191, 192, 193
 194, 195, 196, 197, 198, 199, 200, 201, 202, 203, 204, 205
*Elset, elset=VerticalSupport, instance=CF-1
  630,  631,  632,  633,  634,  635,  636,  637,  638,  639,  640,  641,  642,  643,  644,  645
  646,  647,  648,  649,  650,  651,  652,  653,  654,  655,  656,  657,  658,  659,  660,  661
  662,  663,  664,  665,  666, 1370, 1371, 1372, 1373, 1374, 1375, 1376, 1377, 1378, 1379, 1380
 1381, 1382, 1383, 1384, 1385, 1386, 1387, 1388, 1389, 1390, 1391, 1392, 1393, 1394, 1395, 1396
 1397, 1398, 1399, 1400, 1401, 1402, 1403, 1404, 1405, 1406
*Nset, nset=XDirSupport, instance=CF-1
 3,
*Nset, nset=YDirSupport, instance=CF-1
 7,
*Nset, nset=rigid_loading_set, instance=CF-2
   1,   2,   5,   6,   9,  10,  11,  12,  13,  14,  15,  16,  17,  18,  19,  20
  21,  22,  23,  24,  25,  26,  27,  28,  29,  30,  31,  32,  33,  34,  35,  36
  37,  38,  39,  40,  41,  42,  43,  44, 115, 116, 117, 118, 119, 120, 121, 122
 123, 124, 125, 126, 127, 128, 129, 130, 131, 132, 133, 134, 135, 136, 137, 138
 139, 140, 141, 142, 143, 144, 145, 146, 147, 148, 149, 150, 151, 152, 835, 836
 837, 838, 839, 840, 841, 842, 843, 844, 845, 846, 847, 848, 849, 850, 851, 852
 853, 854, 855, 856, 857, 858, 859, 860, 861, 862, 863, 864, 865, 866, 867, 868
 869, 870
*Elset, elset=rigid_loading_set, instance=CF-2, generate
 667,  740,    1
*Nset, nset=_PickedSet14, internal
 1,
*Elset, elset=__PickedSurf15_SPOS, internal, instance=CF-2, generate
 667,  740,    1
*Surface, type=ELEMENT, name=_PickedSurf15, internal
__PickedSurf15_SPOS, SPOS
** Constraint: BatPoly-0
*Tie, name=BatPoly-0, adjust=no, position tolerance=1.
Battery-1.Battery-rivet-0, Polymer-1.Polymer-rivet-0
** Constraint: BatPoly-1
*Tie, name=BatPoly-1, adjust=no, position tolerance=1.
Battery-1.Battery-rivet-1, Polymer-1.Polymer-rivet-1
** Constraint: BatPoly-2
*Tie, name=BatPoly-2, adjust=no, position tolerance=1.
Battery-1.Battery-rivet-2, Polymer-1.Polymer-rivet-2
** Constraint: BatPoly-3
*Tie, name=BatPoly-3, adjust=no, position tolerance=1.
Battery-1.Battery-rivet-3, Polymer-1.Polymer-rivet-3
** Constraint: CF1Poly
*Tie, name=CF1Poly, adjust=no, position tolerance=1.
Polymer-1.PolyBot, CF-1.CFtop
** Constraint: CF1Poly-Rivet-0
*Tie, name=CF1Poly-Rivet-0, adjust=no, position tolerance=1.
Polymer-1.Polymer-rivet-bot-0, CF-1.CFtop
** Constraint: CF1Poly-Rivet-1
*Tie, name=CF1Poly-Rivet-1, adjust=no, position tolerance=1.
Polymer-1.Polymer-rivet-bot-1, CF-1.CFtop
** Constraint: CF1Poly-Rivet-2
*Tie, name=CF1Poly-Rivet-2, adjust=no, position tolerance=1.
Polymer-1.Polymer-rivet-bot-2, CF-1.CFtop
** Constraint: CF1Poly-Rivet-3
*Tie, name=CF1Poly-Rivet-3, adjust=no, position tolerance=1.
Polymer-1.Polymer-rivet-bot-3, CF-1.CFtop
** Constraint: CF2Poly
*Tie, name=CF2Poly, adjust=no, position tolerance=1.
Polymer-1.PolyTop, CF-2.CFbot
** Constraint: CF2Poly-Rivet-0
*Tie, name=CF2Poly-Rivet-0, adjust=no, position tolerance=1.
Polymer-1.Polymer-rivet-top-0, CF-2.CFbot
** Constraint: CF2Poly-Rivet-1
*Tie, name=CF2Poly-Rivet-1, adjust=no, position tolerance=1.
Polymer-1.Polymer-rivet-top-1, CF-2.CFbot
** Constraint: CF2Poly-Rivet-2
*Tie, name=CF2Poly-Rivet-2, adjust=no, position tolerance=1.
Polymer-1.Polymer-rivet-top-2, CF-2.CFbot
** Constraint: CF2Poly-Rivet-3
*Tie, name=CF2Poly-Rivet-3, adjust=no, position tolerance=1.
Polymer-1.Polymer-rivet-top-3, CF-2.CFbot
** Constraint: LoadingRigidBody
*Rigid Body, ref node=_PickedSet14, tie nset=rigid_loading_set
*End Assembly
** 
** MATERIALS
** 
*Material, name=BatOrtho
*Elastic, type=ENGINEERING CONSTANTS
1090., 109., 500., 0.15, 0.15, 0.15, 474., 474.
 474.,
*Material, name=CF_material
*Elastic, type=ENGINEERING CONSTANTS
30420.,  4023.,  4023.,   0.29,   0.29, 0.3928,  2081.,  2081.
  1440.,
*Material, name=Polymer
*Elastic
500., 0.3
** 
** INTERACTION PROPERTIES
** 
*Surface Interaction, name=NormCont
1.,
*Friction, slip tolerance=0.005
 0.3,
*Surface Behavior, pressure-overclosure=HARD
** 
** INTERACTIONS
** 
** Interaction: CF1Bat
*Contact Pair, interaction=NormCont, type=SURFACE TO SURFACE
Battery-1.BatBot, CF-1.CFtop
** Interaction: CF2Bat
*Contact Pair, interaction=NormCont, type=SURFACE TO SURFACE
Battery-1.BatTop, CF-2.CFbot
** ----------------------------------------------------------------
** 
** STEP: Loading
** 
*Step, name=Loading, nlgeom=NO
*Static
1., 1., 1e-05, 1.
** 
** BOUNDARY CONDITIONS
** 
** Name: VerticalSupport Type: Displacement/Rotation
*Boundary
VerticalSupport, 3, 3
** Name: XDirSupport Type: Displacement/Rotation
*Boundary
XDirSupport, 1, 1
** Name: YDirSupport Type: Displacement/Rotation
*Boundary
YDirSupport, 2, 2
** 
** LOADS
** 
** Name: Load-1   Type: Pressure
*Dsload
_PickedSurf15, P, 0.181818
** 
** OUTPUT REQUESTS
** 
*Restart, write, frequency=0
** 
** FIELD OUTPUT: F-Output-1
** 
*Output, field
*Node Output
U, UR, UT
*Element Output, directions=YES
EVOL, 
** 
** HISTORY OUTPUT: H-Output-1
** 
*Output, history, variable=PRESELECT
*End Step
