*Heading
** Job name: Job-48 Model name: Model-1
** Generated by: Abaqus/CAE 2019
*Preprint, echo=NO, model=NO, history=NO, contact=NO
**
** PARTS
**
*Part, name=Battery
*Node
      1,   82.4227753,   45.3187408,           0.
      2,   80.3014526,   46.1974182,           0.
      3,   78.1801376,   45.3187408,           0.
      4,   77.3014526,   43.1974182,           0.
      5,   78.1801376,   41.0760994,           0.
      6,   80.3014526,   40.1974182,           0.
      7,   82.4227753,   41.0760994,           0.
      8,   83.3014526,   43.1974182,           0.
      9,   14.1530581,   85.1510544,           0.
     10,   12.0951118,   86.6462402,           0.
     11,   9.55135155,   86.6462402,           0.
     12,   7.49340534,   85.1510544,           0.
     13,   6.70734024,   82.7317963,           0.
     14,   7.49340534,   80.3125381,           0.
     15,   9.55135155,   78.8173523,           0.
     16,   12.0951118,   78.8173523,           0.
     17,   14.1530581,   80.3125381,           0.
     18,   14.9391232,   82.7317963,           0.
     19,   84.2501221,   10.8269577,           0.
     20,   82.3402176,   12.7368679,           0.
** ... 4057 like lines cut
*Element, type=C3D8R
   1,  192,  188,  134,  133, 1551, 1547, 1493, 1492
   2,  125,  189,  190,  126, 1484, 1548, 1549, 1485
   3,  294,  318,  192,  258, 1653, 1677, 1551, 1617
   4,  192,  318,  295,  188, 1551, 1677, 1654, 1547
   5,  261,  191,  136,  135, 1620, 1550, 1495, 1494
   6,  120,  169,  255,  121, 1479, 1528, 1614, 1480
   7,  161,  169,  120,  119, 1520, 1528, 1479, 1478
   8,  174,   11,  103,  102, 1533, 1370, 1462, 1461
   9,  174,  102,  101,  194, 1533, 1461, 1460, 1553
  10,  241,  291,  377,  378, 1600, 1650, 1736, 1737
  11,  293,  439,  327,  218, 1652, 1798, 1686, 1577
  12,   78,   77,  289,  217, 1437, 1436, 1648, 1576
  13,   40,   71,  195,   72, 1399, 1430, 1554, 1431
  14,  512,  433,  386,  506, 1871, 1792, 1745, 1865
  15,   82,   81,  215,  229, 1441, 1440, 1574, 1588
  16,  383,  485,  458,  438, 1742, 1844, 1817, 1797
  17,  248,  112,  111,  247, 1607, 1471, 1470, 1606
  18,  732,  738,  179, 1214, 2091, 2097, 1538, 2573
  19,  108,  198,  246,  109, 1467, 1557, 1605, 1468
  20,   10,  104,  103,   11, 1369, 1463, 1462, 1370
** ... 2546 like lines cut
*Nset, nset=Batset, generate
    1,  4077,     1
*Elset, elset=Batset, generate
    1,  2566,     1
*Elset, elset=_BatTop_S2, internal, generate
 1284,  2566,     1
*Surface, type=ELEMENT, name=BatTop
_BatTop_S2, S2
*Elset, elset=_BatBot_S1, internal, generate
    1,  1283,     1
*Surface, type=ELEMENT, name=BatBot
_BatBot_S1, S1
*Elset, elset=_Battery-rivet-0_S3, internal
  101,  109, 1243, 1384, 1392, 2526
*Elset, elset=_Battery-rivet-0_S6, internal
  105,  108, 1388, 1391
*Elset, elset=_Battery-rivet-0_S4, internal
  143,  144,  152, 1426, 1427, 1435
*Surface, type=ELEMENT, name=Battery-rivet-0
_Battery-rivet-0_S3, S3
_Battery-rivet-0_S6, S6
_Battery-rivet-0_S4, S4
*Elset, elset=_Battery-rivet-1_S3, internal
   30,   50,  135, 1313, 1333, 1418
*Elset, elset=_Battery-rivet-1_S4, internal
   32,  148,  168,  171,  174, 1315, 1431, 1451, 1454, 1457
*Elset, elset=_Battery-rivet-1_S5, internal
   48,  167,  173,  178, 1331, 1450, 1456, 1461
*Surface, type=ELEMENT, name=Battery-rivet-1
_Battery-rivet-1_S3, S3
_Battery-rivet-1_S4, S4
_Battery-rivet-1_S5, S5
*Elset, elset=_Battery-rivet-2_S6, internal
   20,   92, 1303, 1375
*Elset, elset=_Battery-rivet-2_S4, internal
   21,   83,  160, 1304, 1366, 1443
*Elset, elset=_Battery-rivet-2_S5, internal
   47,   90,  158,  162, 1330, 1373, 1441, 1445
*Elset, elset=_Battery-rivet-2_S3, internal
   88, 1371
*Surface, type=ELEMENT, name=Battery-rivet-2
_Battery-rivet-2_S6, S6
_Battery-rivet-2_S4, S4
_Battery-rivet-2_S5, S5
_Battery-rivet-2_S3, S3
*Elset, elset=_Battery-rivet-3_S5, internal
   23,   37, 1306, 1320
*Elset, elset=_Battery-rivet-3_S3, internal
   45, 1328
*Elset, elset=_Battery-rivet-3_S4, internal
  123,  141,  146,  149, 1242, 1406, 1424, 1429, 1432, 2525
*Surface, type=ELEMENT, name=Battery-rivet-3
_Battery-rivet-3_S5, S5
_Battery-rivet-3_S3, S3
_Battery-rivet-3_S4, S4
*Orientation, name=Ori-1
1., 0., 0., 0., 1., 0.
3, 0.
** Section: BatOrtho
*Solid Section, elset=Batset, orientation=Ori-1, material=BatOrtho
,
*End Part
**  
*Part, name=CF
*Node
      1,         52.5,           0.,           0.
      2,         52.5,         110.,           0.
      3,           0.,         110.,           0.
      4,           0.,           0.,           0.
      5,         57.5,           0.,           0.
      6,         57.5,         110.,           0.
      7,         110.,           0.,           0.
      8,         110.,         110.,           0.
      9,         52.5,   2.97297287,           0.
     10,         52.5,   5.94594574,           0.
     11,         52.5,   8.91891861,           0.
     12,         52.5,   11.8918915,           0.
     13,         52.5,   14.8648653,           0.
     14,         52.5,   17.8378372,           0.
     15,         52.5,   20.8108101,           0.
     16,         52.5,    23.783783,           0.
     17,         52.5,   26.7567558,           0.
     18,         52.5,   29.7297306,           0.
     19,         52.5,   32.7027016,           0.
     20,         52.5,   35.6756744,           0.
** ... 1462 like lines cut
*Element, type=S4R
  1,   1,   9, 223, 114
  2,   9,  10, 224, 223
  3,  10,  11, 225, 224
  4,  11,  12, 226, 225
  5,  12,  13, 227, 226
  6,  13,  14, 228, 227
  7,  14,  15, 229, 228
  8,  15,  16, 230, 229
  9,  16,  17, 231, 230
 10,  17,  18, 232, 231
 11,  18,  19, 233, 232
 12,  19,  20, 234, 233
 13,  20,  21, 235, 234
 14,  21,  22, 236, 235
 15,  22,  23, 237, 236
 16,  23,  24, 238, 237
 17,  24,  25, 239, 238
 18,  25,  26, 240, 239
 19,  26,  27, 241, 240
 20,  27,  28, 242, 241
** ... 1386 like lines cut
*Nset, nset=CF_set, generate
    1,  1482,     1
*Elset, elset=CF_set, generate
    1,  1406,     1
*Elset, elset=_CFtop_SPOS, internal, generate
    1,  1406,     1
*Surface, type=ELEMENT, name=CFtop
_CFtop_SPOS, SPOS
*Elset, elset=_CFbot_SNEG, internal, generate
    1,  1406,     1
*Surface, type=ELEMENT, name=CFbot
_CFbot_SNEG, SNEG
** Section: CF_sec
*Shell Section, elset=CF_set, composite
0.2, 3, CF_material, 0.
0.2, 3, CF_material, 90.
0.2, 3, CF_material, 90.
0.2, 3, CF_material, 0.
*End Part
**  
*Part, name=Polymer
*Node
      1,   24.9391232,   92.7317963,           0.
      2,   24.9391232,   92.7317963,           5.
      3,   72.2773819,   92.4020309,           0.
      4,   72.2773819,   92.4020309,           5.
      5,          10.,         100.,           0.
      6,          10.,          10.,           0.
      7,         100.,          10.,           0.
      8,         100.,         100.,           0.
      9,         110.,           0.,           0.
     10,           0.,           0.,           0.
     11,           0.,         110.,           0.
     12,         110.,         110.,           0.
     13,          10.,          10.,           5.
     14,          10.,         100.,           5.
     15,         100.,         100.,           5.
     16,         100.,          10.,           5.
     17,           0.,         110.,           5.
     18,           0.,           0.,           5.
     19,         110.,           0.,           5.
     20,         110.,         110.,           5.
** ... 2206 like lines cut
*Element, type=C3D8R
 1,  651,  650, 1798, 1799,   32,   31,  628,  629
 2, 1797, 1791, 1801, 1792,  627,  621,  631,  622
 3, 1800,  652,  651, 1799,  630,   33,   32,  629
 4, 1799, 1798, 1797, 1792,  629,  628,  627,  622
 5, 1801, 1791,  648,  647,  631,  621,   29,   28
 6,  643,  652, 1800, 1793,    1,   33,  630,  623
 7,  649,  648, 1791, 1797,   30,   29,  621,  627
 8, 1801, 1796, 1795, 1792,  631,  626,  625,  622
 9, 1792, 1795, 1794, 1793,  622,  625,  624,  623
10,  643, 1793, 1794,  644,    1,  623,  624,   25
11, 1793, 1800, 1799, 1792,  623,  630,  629,  622
12,  645,  644, 1794, 1795,   26,   25,  624,  625
13,  645, 1795, 1796,  646,   26,  625,  626,   27
14, 1801,  647,  646, 1796,  631,   28,   27,  626
15,  650,  649, 1797, 1798,   31,   30,  627,  628
16,   35,   36,  639,  640,  651,  650, 1798, 1799
17,  638,  632,  642,  633, 1797, 1791, 1801, 1792
18,  641,   34,   35,  640, 1800,  652,  651, 1799
19,  640,  639,  638,  633, 1799, 1798, 1797, 1792
20,  642,  632,   38,   39, 1801, 1791,  648,  647
** ... 1150 like lines cut
*Nset, nset=PolySet
    5,    6,    7,    8,    9,   10,   11,   12,   13,   14,   15,   16,   17,   18,   19,   20
   57,   58,   59,   60,   61,   62,   63,   64,   65,   66,   67,   68,   69,   70,   71,   72
   73,   74,   75,   76,   77,   78,   79,   80,   81,   82,   83,   84,   85,   86,   87,   88
   89,   90,   91,   92,   93,   94,   95,   96,   97,   98,   99,  100,  101,  102,  103,  104
  105,  106,  107,  108,  109,  110,  111,  112,  113,  114,  115,  116,  117,  118,  119,  120
  121,  122,  123,  124,  125,  126,  127,  128,  129,  130,  131,  132,  133,  134,  135,  136
  137,  138,  139,  140,  141,  142,  143,  144,  145,  146,  147,  148,  149,  150,  151,  152
  153,  154,  155,  156,  157,  158,  159,  160,  161,  162,  163,  164,  165,  166,  167,  168
  169,  170,  171,  172,  173,  174,  175,  176,  177,  178,  179,  180,  181,  182,  183,  184
  185,  186,  187,  188,  189,  190,  191,  192,  193,  194,  195,  196,  197,  198,  199,  200
  201,  202,  203,  204,  205,  206,  207,  208,  209,  210,  211,  212,  213,  214,  215,  216
  217,  218,  219,  220,  221,  222,  223,  224,  225,  226,  227,  228,  229,  230,  231,  232
  233,  234,  235,  236,  237,  238,  239,  240,  241,  242,  243,  244,  245,  246,  247,  248
  249,  250,  251,  252,  253,  254,  255,  256,  257,  258,  259,  260,  261,  262,  263,  264
  265,  266,  267,  268,  269,  270,  271,  272,  273,  274,  275,  276,  277,  278,  279,  280
  281,  282,  283,  284,  285,  286,  287,  288,  289,  290,  291,  292,  293,  294,  295,  296
  297,  298,  299,  300,  301,  302,  303,  304,  305,  306,  307,  308,  309,  310,  311,  312
  313,  314,  315,  316,  317,  318,  319,  320,  321,  322,  323,  324,  325,  326,  327,  328
  329,  330,  331,  332,  333,  334,  335,  336,  337,  338,  339,  340,  341,  342,  343,  344
  345,  346,  347,  348,  349,  350,  351,  352,  353,  354,  355,  356,  357,  358,  359,  360
** ... 106 like lines cut
*Elset, elset=PolySet, generate
   39,  1110,     1
*Nset, nset=_PickedSet12, internal
    3,    4,   43,   44,   45,   46,   47,   48,   49,   50,   51,   52,   53,   54,   55,   56
  653,  654,  655,  656,  657,  658,  659,  660,  661,  662, 1802
*Elset, elset=_PickedSet12, internal, generate
 31,  38,   1
*Nset, nset=_PickedSet17, internal
   21,   22,  585,  586,  587,  588,  589,  590,  591,  592,  593,  594,  595,  596,  597,  598
  599,  600,  601,  602,  603,  604,  605,  606, 1727, 1728, 1729, 1730, 1731, 1732, 1733, 1734
 1735, 1736, 1737, 1738, 1739, 1740, 1741, 1742, 1743, 1744, 1745, 1746, 1747, 1748, 1749, 1750
 1751, 1752, 1753, 1754, 1755, 1756, 1757, 1758, 1759, 1760, 1761, 1762, 1763, 1764, 1765, 1766
 1767, 1768, 1769, 1770, 1771, 1772, 1773, 1774, 1775, 1776, 1777, 1778, 1779, 1780, 2205, 2206
 2207, 2208, 2209, 2210, 2211, 2212, 2213, 2214, 2215, 2216, 2217, 2218, 2219, 2220, 2221, 2222
 2223, 2224, 2225
*Elset, elset=_PickedSet17, internal, generate
 1111,  1162,     1
*Nset, nset=_PickedSet22, internal
    1,    2,   25,   26,   27,   28,   29,   30,   31,   32,   33,   34,   35,   36,   37,   38
   39,   40,   41,   42,  621,  622,  623,  624,  625,  626,  627,  628,  629,  630,  631,  632
  633,  634,  635,  636,  637,  638,  639,  640,  641,  642,  643,  644,  645,  646,  647,  648
  649,  650,  651,  652, 1791, 1792, 1793, 1794, 1795, 1796, 1797, 1798, 1799, 1800, 1801
*Elset, elset=_PickedSet22, internal, generate
  1,  30,   1
*Nset, nset=_PickedSet27, internal
   23,   24,  607,  608,  609,  610,  611,  612,  613,  614,  615,  616,  617,  618,  619,  620
 1781, 1782, 1783, 1784, 1785, 1786, 1787, 1788, 1789, 1790, 2226
*Elset, elset=_PickedSet27, internal, generate
 1163,  1170,     1
*Elset, elset=_PolyTop_S2, internal, generate
  575,  1110,     1
*Surface, type=ELEMENT, name=PolyTop
_PolyTop_S2, S2
*Elset, elset=_PolyBot_S1, internal, generate
  39,  574,    1
*Surface, type=ELEMENT, name=PolyBot
_PolyBot_S1, S1
*Elset, elset=_Polymer-rivet-0_S4, internal
 31, 34, 35, 38
*Elset, elset=_Polymer-rivet-0_S5, internal
 31, 34, 35, 38
*Elset, elset=_Polymer-rivet-0_S3, internal
 32, 33, 36, 37
*Elset, elset=_Polymer-rivet-0_S6, internal
 32, 33, 36, 37
*Surface, type=ELEMENT, name=Polymer-rivet-0
_Polymer-rivet-0_S4, S4
_Polymer-rivet-0_S5, S5
_Polymer-rivet-0_S6, S6
_Polymer-rivet-0_S3, S3
*Elset, elset=_Polymer-rivet-top-0_S1, internal, generate
 35,  38,   1
*Surface, type=ELEMENT, name=Polymer-rivet-top-0
_Polymer-rivet-top-0_S1, S1
*Elset, elset=_Polymer-rivet-bot-0_S2, internal, generate
 31,  34,   1
*Surface, type=ELEMENT, name=Polymer-rivet-bot-0
_Polymer-rivet-bot-0_S2, S2
*Elset, elset=_Polymer-rivet-1_S3, internal
 1112, 1123, 1129, 1130, 1131, 1138, 1149, 1155, 1156, 1157
*Elset, elset=_Polymer-rivet-1_S6, internal
 1114, 1121, 1124, 1125, 1134, 1140, 1147, 1150, 1151, 1160
*Elset, elset=_Polymer-rivet-1_S5, internal
 1118, 1126, 1144, 1152
*Surface, type=ELEMENT, name=Polymer-rivet-1
_Polymer-rivet-1_S3, S3
_Polymer-rivet-1_S6, S6
_Polymer-rivet-1_S5, S5
*Elset, elset=_Polymer-rivet-top-1_S1, internal, generate
 1137,  1162,     1
*Surface, type=ELEMENT, name=Polymer-rivet-top-1
_Polymer-rivet-top-1_S1, S1
*Elset, elset=_Polymer-rivet-bot-1_S2, internal, generate
 1111,  1136,     1
*Surface, type=ELEMENT, name=Polymer-rivet-bot-1
_Polymer-rivet-bot-1_S2, S2
*Elset, elset=_Polymer-rivet-2_S3, internal
  1,  6,  7, 12, 15, 16, 21, 22, 27, 30
*Elset, elset=_Polymer-rivet-2_S4, internal
  3, 14, 18, 29
*Elset, elset=_Polymer-rivet-2_S5, internal
  5, 20
*Elset, elset=_Polymer-rivet-2_S6, internal
 10, 13, 25, 28
*Surface, type=ELEMENT, name=Polymer-rivet-2
_Polymer-rivet-2_S3, S3
_Polymer-rivet-2_S4, S4
_Polymer-rivet-2_S6, S6
_Polymer-rivet-2_S5, S5
*Elset, elset=_Polymer-rivet-top-2_S1, internal, generate
 16,  30,   1
*Surface, type=ELEMENT, name=Polymer-rivet-top-2
_Polymer-rivet-top-2_S1, S1
*Elset, elset=_Polymer-rivet-bot-2_S2, internal, generate
  1,  15,   1
*Surface, type=ELEMENT, name=Polymer-rivet-bot-2
_Polymer-rivet-bot-2_S2, S2
*Elset, elset=_Polymer-rivet-3_S4, internal
 1163, 1166, 1167, 1170
*Elset, elset=_Polymer-rivet-3_S5, internal
 1163, 1166, 1167, 1170
*Elset, elset=_Polymer-rivet-3_S3, internal
 1164, 1165, 1168, 1169
*Elset, elset=_Polymer-rivet-3_S6, internal
 1164, 1165, 1168, 1169
*Surface, type=ELEMENT, name=Polymer-rivet-3
_Polymer-rivet-3_S4, S4
_Polymer-rivet-3_S5, S5
_Polymer-rivet-3_S6, S6
_Polymer-rivet-3_S3, S3
*Elset, elset=_Polymer-rivet-top-3_S1, internal, generate
 1167,  1170,     1
*Surface, type=ELEMENT, name=Polymer-rivet-top-3
_Polymer-rivet-top-3_S1, S1
*Elset, elset=_Polymer-rivet-bot-3_S2, internal, generate
 1163,  1166,     1
*Surface, type=ELEMENT, name=Polymer-rivet-bot-3
_Polymer-rivet-bot-3_S2, S2
** Section: PolySec
*Solid Section, elset=_PickedSet22, material=Polymer
,
** Section: PolySec
*Solid Section, elset=_PickedSet12, material=Polymer
,
** Section: PolySec
*Solid Section, elset=PolySet, material=Polymer
,
** Section: PolySec
*Solid Section, elset=_PickedSet17, material=Polymer
,
** Section: PolySec
*Solid Section, elset=_PickedSet27, material=Polymer
,
*End Part
**  
**
** ASSEMBLY
**
*Assembly, name=Assembly
**  
*Instance, name=Polymer-1, part=Polymer
*End Instance
**  
*Instance, name=Battery-1, part=Battery
         10.,          10.,           0.
*End Instance
**  
*Instance, name=CF-1, part=CF
          0.,           0.,         -0.4
*End Instance
**  
*Instance, name=CF-2, part=CF
          0.,           0.,          5.4
*End Instance
**  
*Node
      1,          55.,          55.,    5.4000001
*Nset, nset=VerticalSupport, instance=CF-1
   3,   4,   7,   8,  62,  63,  64,  65,  66,  67,  68,  69,  70,  71,  72,  73
  74,  75,  76,  77,  78,  79,  80,  81,  82,  83,  84,  85,  86,  87,  88,  89
  90,  91,  92,  93,  94,  95,  96,  97, 170, 171, 172, 173, 174, 175, 176, 177
 178, 179, 180, 181, 182, 183, 184, 185, 186, 187, 188, 189, 190, 191, 192, 193
 194, 195, 196, 197, 198, 199, 200, 201, 202, 203, 204, 205
*Elset, elset=VerticalSupport, instance=CF-1
  630,  631,  632,  633,  634,  635,  636,  637,  638,  639,  640,  641,  642,  643,  644,  645
  646,  647,  648,  649,  650,  651,  652,  653,  654,  655,  656,  657,  658,  659,  660,  661
  662,  663,  664,  665,  666, 1370, 1371, 1372, 1373, 1374, 1375, 1376, 1377, 1378, 1379, 1380
 1381, 1382, 1383, 1384, 1385, 1386, 1387, 1388, 1389, 1390, 1391, 1392, 1393, 1394, 1395, 1396
 1397, 1398, 1399, 1400, 1401, 1402, 1403, 1404, 1405, 1406
*Nset, nset=XDirSupport, instance=CF-1
 3,
*Nset, nset=YDirSupport, instance=CF-1
 7,
*Nset, nset=rigid_loading_set, instance=CF-2
   1,   2,   5,   6,   9,  10,  11,  12,  13,  14,  15,  16,  17,  18,  19,  20
  21,  22,  23,  24,  25,  26,  27,  28,  29,  30,  31,  32,  33,  34,  35,  36
  37,  38,  39,  40,  41,  42,  43,  44, 115, 116, 117, 118, 119, 120, 121, 122
 123, 124, 125, 126, 127, 128, 129, 130, 131, 132, 133, 134, 135, 136, 137, 138
 139, 140, 141, 142, 143, 144, 145, 146, 147, 148, 149, 150, 151, 152, 835, 836
 837, 838, 839, 840, 841, 842, 843, 844, 845, 846, 847, 848, 849, 850, 851, 852
 853, 854, 855, 856, 857, 858, 859, 860, 861, 862, 863, 864, 865, 866, 867, 868
 869, 870
*Elset, elset=rigid_loading_set, instance=CF-2, generate
 667,  740,    1
*Nset, nset=_PickedSet14, internal
 1,
*Elset, elset=__PickedSurf15_SPOS, internal, instance=CF-2, generate
 667,  740,    1
*Surface, type=ELEMENT, name=_PickedSurf15, internal
__PickedSurf15_SPOS, SPOS
** Constraint: BatPoly-0
*Tie, name=BatPoly-0, adjust=no, position tolerance=1.
Battery-1.Battery-rivet-0, Polymer-1.Polymer-rivet-0
** Constraint: BatPoly-1
*Tie, name=BatPoly-1, adjust=no, position tolerance=1.
Battery-1.Battery-rivet-1, Polymer-1.Polymer-rivet-1
** Constraint: BatPoly-2
*Tie, name=BatPoly-2, adjust=no, position tolerance=1.
Battery-1.Battery-rivet-2, Polymer-1.Polymer-rivet-2
** Constraint: BatPoly-3
*Tie, name=BatPoly-3, adjust=no, position tolerance=1.
Battery-1.Battery-rivet-3, Polymer-1.Polymer-rivet-3
** Constraint: CF1Poly
*Tie, name=CF1Poly, adjust=no, position tolerance=1.
Polymer-1.PolyBot, CF-1.CFtop
** Constraint: CF1Poly-Rivet-0
*Tie, name=CF1Poly-Rivet-0, adjust=no, position tolerance=1.
Polymer-1.Polymer-rivet-bot-0, CF-1.CFtop
** Constraint: CF1Poly-Rivet-1
*Tie, name=CF1Poly-Rivet-1, adjust=no, position tolerance=1.
Polymer-1.Polymer-rivet-bot-1, CF-1.CFtop
** Constraint: CF1Poly-Rivet-2
*Tie, name=CF1Poly-Rivet-2, adjust=no, position tolerance=1.
Polymer-1.Polymer-rivet-bot-2, CF-1.CFtop
** Constraint: CF1Poly-Rivet-3
*Tie, name=CF1Poly-Rivet-3, adjust=no, position tolerance=1.
Polymer-1.Polymer-rivet-bot-3, CF-1.CFtop
** Constraint: CF2Poly
*Tie, name=CF2Poly, adjust=no, position tolerance=1.
Polymer-1.PolyTop, CF-2.CFbot
** Constraint: CF2Poly-Rivet-0
*Tie, name=CF2Poly-Rivet-0, adjust=no, position tolerance=1.
Polymer-1.Polymer-rivet-top-0, CF-2.CFbot
** Constraint: CF2Poly-Rivet-1
*Tie, name=CF2Poly-Rivet-1, adjust=no, position tolerance=1.
Polymer-1.Polymer-rivet-top-1, CF-2.CFbot
** Constraint: CF2Poly-Rivet-2
*Tie, name=CF2Poly-Rivet-2, adjust=no, position tolerance=1.
Polymer-1.Polymer-rivet-top-2, CF-2.CFbot
** Constraint: CF2Poly-Rivet-3
*Tie, name=CF2Poly-Rivet-3, adjust=no, position tolerance=1.
Polymer-1.Polymer-rivet-top-3, CF-2.CFbot
** Constraint: LoadingRigidBody
*Rigid Body, ref node=_PickedSet14, tie nset=rigid_loading_set
*End Assembly
** 
** MATERIALS
** 
*Material, name=BatOrtho
*Elastic, type=ENGINEERING CONSTANTS
1090., 109., 500., 0.15, 0.15, 0.15, 474., 474.
 474.,
*Material, name=CF_material
*Elastic, type=ENGINEERING CONSTANTS
30420.,  4023.,  4023.,   0.29,   0.29, 0.3928,  2081.,  2081.
  1440.,
*Material, name=Polymer
*Elastic
500., 0.3
** 
** INTERACTION PROPERTIES
** 
*Surface Interaction, name=NormCont
1.,
*Friction, slip tolerance=0.005
 0.3,
*Surface Behavior, pressure-overclosure=HARD
** 
** INTERACTIONS
** 
** Interaction: CF1Bat
*Contact Pair, interaction=NormCont, type=SURFACE TO SURFACE
Battery-1.BatBot, CF-1.CFtop
** Interaction: CF2Bat
*Contact Pair, interaction=NormCont, type=SURFACE TO SURFACE
Battery-1.BatTop, CF-2.CFbot
** ----------------------------------------------------------------
** 
** STEP: Loading
** 
*Step, name=Loading, nlgeom=NO
*Static
1., 1., 1e-05, 1.
** 
** BOUNDARY CONDITIONS
** 
** Name: VerticalSupport Type: Displacement/Rotation
*Boundary
VerticalSupport, 3, 3
** Name: XDirSupport Type: Displacement/Rotation
*Boundary
XDirSupport, 1, 1
** Name: YDirSupport Type: Displacement/Rotation
*Boundary
YDirSupport, 2, 2
** 
** LOADS
** 
** Name: Load-1   Type: Pressure
*Dsload
_PickedSurf15, P, 0.181818
** 
** OUTPUT REQUESTS
** 
*Restart, write, frequency=0
** 
** FIELD OUTPUT: F-Output-1
** 
*Output, field
*Node Output
U, UR, UT
*Element Output, directions=YES
EVOL, 
** 
** HISTORY OUTPUT: H-Output-1
** 
*Output, history, variable=PRESELECT
*End Step
