 Abaqus/Standard 3DEXPERIENCE R2019x                  DATE 29-May-2019 TIME 14:54:16
 SUMMARY OF JOB INFORMATION:
 STEP  INC ATT SEVERE EQUIL TOTAL  TOTAL      STEP       INC OF       DOF    IF
               DISCON ITERS ITERS  TIME/    TIME/LPF    TIME/LPF    MONITOR RIKS
               ITERS               FREQ
   1     1   1U   19    16    35  0.000      0.000      1.000     
   1     1   2U   19    16    35  0.000      0.000      0.2500    
   1     1   3U   15     1    16  0.000      0.000      0.06250   
   1     1   4    17     1    18  0.0156     0.0156     0.01563   
   1     2   1U    6     3     9  0.0156     0.0156     0.01563   
   1     2   2     3     1     4  0.0195     0.0195     0.003906  
   1     3   1U    2     5     7  0.0195     0.0195     0.005859  
   1     3   2U    2     4     6  0.0195     0.0195     0.001465  
   1     3   3U    2     5     7  0.0195     0.0195     0.0003662 
   1     3   4U    2     4     6  0.0195     0.0195     9.155e-05 
   1     3   5U    1     4     5  0.0195     0.0195     2.289e-05 
                          
 THE ANALYSIS HAS NOT BEEN COMPLETED
