 Abaqus/Standard 3DEXPERIENCE R2019x                  DATE 29-May-2019 TIME 18:38:25
 SUMMARY OF JOB INFORMATION:
 STEP  INC ATT SEVERE EQUIL TOTAL  TOTAL      STEP       INC OF       DOF    IF
               DISCON ITERS ITERS  TIME/    TIME/LPF    TIME/LPF    MONITOR RIKS
               ITERS               FREQ
   1     1   1U   18    16    34  0.000      0.000      1.000     
   1     1   2U   18    16    34  0.000      0.000      0.2500    
   1     1   3U   12     1    13  0.000      0.000      0.06250   
   1     1   4U   17     4    21  0.000      0.000      0.01563   
   1     1   5U   15     6    21  0.000      0.000      0.003906  
                          
 THE ANALYSIS HAS NOT BEEN COMPLETED
