 Abaqus/Standard 3DEXPERIENCE R2019x                  DATE 29-May-2019 TIME 16:17:47
 SUMMARY OF JOB INFORMATION:
 STEP  INC ATT SEVERE EQUIL TOTAL  TOTAL      STEP       INC OF       DOF    IF
               DISCON ITERS ITERS  TIME/    TIME/LPF    TIME/LPF    MONITOR RIKS
               ITERS               FREQ
   1     1   1U   18    16    34  0.000      0.000      1.000     
   1     1   2U   18    16    34  0.000      0.000      0.2500    
   1     1   3U   11     1    12  0.000      0.000      0.06250   
   1     1   4U   18     4    22  0.000      0.000      0.01563   
   1     1   5U   17     5    22  0.000      0.000      0.003906  
                          
 THE ANALYSIS HAS NOT BEEN COMPLETED
