*Heading
** Job name: Job-26 Model name: Model-1
** Generated by: Abaqus/CAE 2019
*Preprint, echo=NO, model=NO, history=NO, contact=NO
**
** PARTS
**
*Part, name=Battery
*Node
      1,   29.9126511,   36.7833443,           0.
      2,   27.7913322,   37.6620255,           0.
      3,   25.6700115,   36.7833443,           0.
      4,   24.7913322,   34.6620255,           0.
      5,   25.6700115,   32.5407066,           0.
      6,   27.7913322,   31.6620255,           0.
      7,   29.9126511,   32.5407066,           0.
      8,   30.7913322,   34.6620255,           0.
      9,   86.4430389,   51.8006821,           0.
     10,    82.483223,   55.7605019,           0.
     11,   79.6832123,   56.3174591,           0.
     12,   76.8832016,   55.7605019,           0.
     13,   72.9233856,   51.8006821,           0.
     14,   72.3664246,   49.0006714,           0.
     15,   72.9233856,   46.2006569,           0.
     16,   76.8832016,   42.2408409,           0.
     17,   79.6832123,   41.6838837,           0.
     18,    82.483223,   42.2408409,           0.
     19,   86.4430389,   46.2006569,           0.
     20,          87.,   49.0006714,           0.
** ... 3844 like lines cut
*Element, type=C3D8R
   1, 1028,  186,   48,  192, 2316, 1474, 1336, 1480
   2,  354,  355,  442,  448, 1642, 1643, 1730, 1736
   3,  160,  225,  223,  161, 1448, 1513, 1511, 1449
   4,  298,  166,  165,  296, 1586, 1454, 1453, 1584
   5,   18,  189,  215,   49, 1306, 1477, 1503, 1337
   6,  156,  215,  292,  157, 1444, 1503, 1580, 1445
   7,  291,    9,  154,  153, 1579, 1297, 1442, 1441
   8,  286,  287,  149,  148, 1574, 1575, 1437, 1436
   9,  216,  286,  148,  147, 1504, 1574, 1436, 1435
  10,  564,  566,  435,  437, 1852, 1854, 1723, 1725
  11,  431, 1135, 1141,  285, 1719, 2423, 2429, 1573
  12,  329,  394,  277,  276, 1617, 1682, 1565, 1564
  13,  459,  201,   50,  210, 1747, 1489, 1338, 1498
  14,  522,  391, 1167,  451, 1810, 1679, 2455, 1739
  15, 1142,  388,  268,  207, 2430, 1676, 1556, 1495
  16, 1148,  204,   32,  208, 2436, 1492, 1320, 1496
  17, 1140,  204, 1148,  362, 2428, 1492, 2436, 1650
  18,  267, 1140,  362,  328, 1555, 2428, 1650, 1616
  19,  267,  109,  108,   34, 1555, 1397, 1396, 1322
  20,  106,   35,   52,  107, 1394, 1323, 1340, 1395
** ... 2392 like lines cut
*Nset, nset=Batset, generate
    1,  3864,     1
*Elset, elset=Batset, generate
    1,  2412,     1
*Elset, elset=_BatTop_S2, internal, generate
 1207,  2412,     1
*Surface, type=ELEMENT, name=BatTop
_BatTop_S2, S2
*Elset, elset=_BatBot_S1, internal, generate
    1,  1206,     1
*Surface, type=ELEMENT, name=BatBot
_BatBot_S1, S1
*Elset, elset=_Battery-rivet-0_S4, internal
   20,   96,  102,  115,  193,  196, 1226, 1302, 1308, 1321, 1399, 1402
*Elset, elset=_Battery-rivet-0_S3, internal
   36,   37,   51,  105,  107,  108, 1242, 1243, 1257, 1311, 1313, 1314
*Elset, elset=_Battery-rivet-0_S6, internal
  103,  194,  198, 1309, 1400, 1404
*Elset, elset=_Battery-rivet-0_S5, internal
  195,  201,  204, 1401, 1407, 1410
*Surface, type=ELEMENT, name=Battery-rivet-0
_Battery-rivet-0_S4, S4
_Battery-rivet-0_S3, S3
_Battery-rivet-0_S6, S6
_Battery-rivet-0_S5, S5
*Elset, elset=_Battery-rivet-1_S4, internal
   21,   32,  164,  168, 1227, 1238, 1370, 1374
*Elset, elset=_Battery-rivet-1_S3, internal
   44,   78,  169, 1250, 1284, 1375
*Elset, elset=_Battery-rivet-1_S5, internal
  167, 1373
*Surface, type=ELEMENT, name=Battery-rivet-1
_Battery-rivet-1_S4, S4
_Battery-rivet-1_S3, S3
_Battery-rivet-1_S5, S5
*Elset, elset=_Battery-rivet-2_S6, internal
    5,   45,  135,  142,  144, 1211, 1251, 1341, 1348, 1350
*Elset, elset=_Battery-rivet-2_S4, internal
   38,  179,  182,  184, 1244, 1385, 1388, 1390
*Elset, elset=_Battery-rivet-2_S3, internal
   53,  118, 1259, 1324
*Elset, elset=_Battery-rivet-2_S5, internal
  141,  143,  180,  181,  185, 1347, 1349, 1386, 1387, 1391
*Surface, type=ELEMENT, name=Battery-rivet-2
_Battery-rivet-2_S6, S6
_Battery-rivet-2_S4, S4
_Battery-rivet-2_S3, S3
_Battery-rivet-2_S5, S5
*Elset, elset=_Battery-rivet-3_S4, internal
   35,  163,  174, 1241, 1369, 1380
*Elset, elset=_Battery-rivet-3_S3, internal
   40,   66,  158, 1246, 1272, 1364
*Elset, elset=_Battery-rivet-3_S5, internal
  166,  176, 1372, 1382
*Surface, type=ELEMENT, name=Battery-rivet-3
_Battery-rivet-3_S4, S4
_Battery-rivet-3_S3, S3
_Battery-rivet-3_S5, S5
*Orientation, name=Ori-1
1., 0., 0., 0., 1., 0.
3, 0.
** Section: BatOrtho
*Solid Section, elset=Batset, orientation=Ori-1, material=BatOrtho
,
*End Part
**  
*Part, name=CF
*Node
      1,         52.5,           0.,           0.
      2,         52.5,         110.,           0.
      3,           0.,         110.,           0.
      4,           0.,           0.,           0.
      5,         57.5,           0.,           0.
      6,         57.5,         110.,           0.
      7,         110.,           0.,           0.
      8,         110.,         110.,           0.
      9,         52.5,   2.97297287,           0.
     10,         52.5,   5.94594574,           0.
     11,         52.5,   8.91891861,           0.
     12,         52.5,   11.8918915,           0.
     13,         52.5,   14.8648653,           0.
     14,         52.5,   17.8378372,           0.
     15,         52.5,   20.8108101,           0.
     16,         52.5,    23.783783,           0.
     17,         52.5,   26.7567558,           0.
     18,         52.5,   29.7297306,           0.
     19,         52.5,   32.7027016,           0.
     20,         52.5,   35.6756744,           0.
** ... 1462 like lines cut
*Element, type=S4R
  1,   1,   9, 223, 114
  2,   9,  10, 224, 223
  3,  10,  11, 225, 224
  4,  11,  12, 226, 225
  5,  12,  13, 227, 226
  6,  13,  14, 228, 227
  7,  14,  15, 229, 228
  8,  15,  16, 230, 229
  9,  16,  17, 231, 230
 10,  17,  18, 232, 231
 11,  18,  19, 233, 232
 12,  19,  20, 234, 233
 13,  20,  21, 235, 234
 14,  21,  22, 236, 235
 15,  22,  23, 237, 236
 16,  23,  24, 238, 237
 17,  24,  25, 239, 238
 18,  25,  26, 240, 239
 19,  26,  27, 241, 240
 20,  27,  28, 242, 241
** ... 1386 like lines cut
*Nset, nset=CF_set, generate
    1,  1482,     1
*Elset, elset=CF_set, generate
    1,  1406,     1
*Elset, elset=_CFtop_SPOS, internal, generate
    1,  1406,     1
*Surface, type=ELEMENT, name=CFtop
_CFtop_SPOS, SPOS
*Elset, elset=_CFbot_SNEG, internal, generate
    1,  1406,     1
*Surface, type=ELEMENT, name=CFbot
_CFbot_SNEG, SNEG
** Section: CF_sec
*Shell Section, elset=CF_set, composite
0.2, 3, CF_material, 0.
0.2, 3, CF_material, 90.
0.2, 3, CF_material, 90.
0.2, 3, CF_material, 0.
*End Part
**  
*Part, name=Polymer
*Node
      1,          97.,   59.0006714,           0.
      2,          97.,   59.0006714,           5.
      3,   29.7336864,   83.4072647,           0.
      4,   29.7336864,   83.4072647,           5.
      5,          10.,         100.,           0.
      6,          10.,          10.,           0.
      7,         100.,          10.,           0.
      8,         100.,         100.,           0.
      9,         110.,           0.,           0.
     10,           0.,           0.,           0.
     11,           0.,         110.,           0.
     12,         110.,         110.,           0.
     13,          10.,          10.,           5.
     14,          10.,         100.,           5.
     15,         100.,         100.,           5.
     16,         100.,          10.,           5.
     17,           0.,         110.,           5.
     18,           0.,           0.,           5.
     19,         110.,           0.,           5.
     20,         110.,         110.,           5.
** ... 2332 like lines cut
*Element, type=C3D8R
 1,  707,  706, 1888, 1896,   38,   37,  646,  654
 2, 1904,  705,  704, 1889,  662,   36,   35,  647
 3, 1908, 1894, 1895, 1897,  666,  652,  653,  655
 4, 1887,  708,  707, 1896,  645,   39,   38,  654
 5,  697,  696, 1900, 1901,   28,   27,  658,  659
 6, 1894, 1890, 1906, 1898,  652,  648,  664,  656
 7, 1908, 1905, 1890, 1894,  666,  663,  648,  652
 8,  695,  694, 1892, 1899,   26,   25,  650,  657
 9, 1893,  693,  708, 1887,  651,    1,   39,  645
10, 1895, 1899, 1892, 1897,  653,  657,  650,  655
11, 1895, 1894, 1898, 1891,  653,  652,  656,  649
12, 1904, 1889, 1910, 1909,  662,  647,  668,  667
13,  706,  705, 1904, 1888,   37,   36,  662,  646
14, 1889,  704,  703, 1905,  647,   35,   34,  663
15, 1905,  703,  702, 1890,  663,   34,   33,  648
16, 1890,  702,  701, 1906,  648,   33,   32,  664
17, 1906,  701,  700, 1907,  664,   32,   31,  665
18,  699, 1903, 1907,  700,   30,  661,  665,   31
19,  698, 1902, 1903,  699,   29,  660,  661,   30
20, 1902, 1891, 1898, 1903,  660,  649,  656,  661
** ... 1222 like lines cut
*Nset, nset=PolySet
    5,    6,    7,    8,    9,   10,   11,   12,   13,   14,   15,   16,   17,   18,   19,   20
   89,   90,   91,   92,   93,   94,   95,   96,   97,   98,   99,  100,  101,  102,  103,  104
  105,  106,  107,  108,  109,  110,  111,  112,  113,  114,  115,  116,  117,  118,  119,  120
  121,  122,  123,  124,  125,  126,  127,  128,  129,  130,  131,  132,  133,  134,  135,  136
  137,  138,  139,  140,  141,  142,  143,  144,  145,  146,  147,  148,  149,  150,  151,  152
  153,  154,  155,  156,  157,  158,  159,  160,  161,  162,  163,  164,  165,  166,  167,  168
  169,  170,  171,  172,  173,  174,  175,  176,  177,  178,  179,  180,  181,  182,  183,  184
  185,  186,  187,  188,  189,  190,  191,  192,  193,  194,  195,  196,  197,  198,  199,  200
  201,  202,  203,  204,  205,  206,  207,  208,  209,  210,  211,  212,  213,  214,  215,  216
  217,  218,  219,  220,  221,  222,  223,  224,  225,  226,  227,  228,  229,  230,  231,  232
  233,  234,  235,  236,  237,  238,  239,  240,  241,  242,  243,  244,  245,  246,  247,  248
  249,  250,  251,  252,  253,  254,  255,  256,  257,  258,  259,  260,  261,  262,  263,  264
  265,  266,  267,  268,  269,  270,  271,  272,  273,  274,  275,  276,  277,  278,  279,  280
  281,  282,  283,  284,  285,  286,  287,  288,  289,  290,  291,  292,  293,  294,  295,  296
  297,  298,  299,  300,  301,  302,  303,  304,  305,  306,  307,  308,  309,  310,  311,  312
  313,  314,  315,  316,  317,  318,  319,  320,  321,  322,  323,  324,  325,  326,  327,  328
  329,  330,  331,  332,  333,  334,  335,  336,  337,  338,  339,  340,  341,  342,  343,  344
  345,  346,  347,  348,  349,  350,  351,  352,  353,  354,  355,  356,  357,  358,  359,  360
  361,  362,  363,  364,  365,  366,  367,  368,  369,  370,  371,  372,  373,  374,  375,  376
  377,  378,  379,  380,  381,  382,  383,  384,  385,  386,  387,  388,  389,  390,  391,  392
** ... 106 like lines cut
*Elset, elset=PolySet, generate
  155,  1226,     1
*Nset, nset=_PickedSet12, internal
    3,    4,   55,   56,   57,   58,   59,   60,   61,   62,   63,   64,   65,   66,   67,   68
   69,   70,   71,   72,   73,   74,   75,   76,   77,   78,   79,   80,   81,   82,   83,   84
   85,   86,   87,   88,  709,  710,  711,  712,  713,  714,  715,  716,  717,  718,  719,  720
  721,  722,  723,  724,  725,  726,  727,  728,  729,  730,  731,  732,  733,  734,  735,  736
  737,  738,  739,  740,  741,  742,  743,  744,  745,  746,  747,  748,  749,  750,  751,  752
  753,  754,  755,  756,  757,  758,  759,  760,  761,  762,  763,  764,  765,  766,  767,  768
  769,  770,  771,  772,  773,  774,  775,  776,  777,  778,  779,  780,  781,  782,  783,  784
  785,  786,  787,  788,  789,  790,  791,  792,  793,  794,  795,  796,  797,  798,  799,  800
  801,  802, 1911, 1912, 1913, 1914, 1915, 1916, 1917, 1918, 1919, 1920, 1921, 1922, 1923, 1924
 1925, 1926, 1927, 1928, 1929, 1930, 1931, 1932, 1933, 1934, 1935, 1936, 1937, 1938, 1939, 1940
 1941, 1942, 1943, 1944, 1945, 1946, 1947, 1948
*Elset, elset=_PickedSet12, internal, generate
  63,  154,    1
*Nset, nset=_PickedSet17, internal
   21,   22,  617,  618,  619,  620,  621,  622,  623,  624,  625,  626,  627,  628,  629,  630
 1867, 1868, 1869, 1870, 1871, 1872, 1873, 1874, 1875, 1876, 2351
*Elset, elset=_PickedSet17, internal, generate
 1227,  1234,     1
*Nset, nset=_PickedSet22, internal
    1,    2,   25,   26,   27,   28,   29,   30,   31,   32,   33,   34,   35,   36,   37,   38
   39,   40,   41,   42,   43,   44,   45,   46,   47,   48,   49,   50,   51,   52,   53,   54
  645,  646,  647,  648,  649,  650,  651,  652,  653,  654,  655,  656,  657,  658,  659,  660
  661,  662,  663,  664,  665,  666,  667,  668,  669,  670,  671,  672,  673,  674,  675,  676
  677,  678,  679,  680,  681,  682,  683,  684,  685,  686,  687,  688,  689,  690,  691,  692
  693,  694,  695,  696,  697,  698,  699,  700,  701,  702,  703,  704,  705,  706,  707,  708
 1887, 1888, 1889, 1890, 1891, 1892, 1893, 1894, 1895, 1896, 1897, 1898, 1899, 1900, 1901, 1902
 1903, 1904, 1905, 1906, 1907, 1908, 1909, 1910
*Elset, elset=_PickedSet22, internal, generate
  1,  62,   1
*Nset, nset=_PickedSet27, internal
   23,   24,  631,  632,  633,  634,  635,  636,  637,  638,  639,  640,  641,  642,  643,  644
 1877, 1878, 1879, 1880, 1881, 1882, 1883, 1884, 1885, 1886, 2352
*Elset, elset=_PickedSet27, internal, generate
 1235,  1242,     1
*Elset, elset=_PolyTop_S2, internal, generate
  691,  1226,     1
*Surface, type=ELEMENT, name=PolyTop
_PolyTop_S2, S2
*Elset, elset=_PolyBot_S1, internal, generate
 155,  690,    1
*Surface, type=ELEMENT, name=PolyBot
_PolyBot_S1, S1
*Elset, elset=_Polymer-rivet-0_S5, internal
  63,  71,  81,  90, 109, 117, 127, 136
*Elset, elset=_Polymer-rivet-0_S6, internal
  64,  68,  72,  78, 110, 114, 118, 124
*Elset, elset=_Polymer-rivet-0_S4, internal
  66,  79,  84,  85,  86,  91,  99, 102, 103, 105, 112, 125, 130, 131, 132, 137
 145, 148, 149, 151
*Surface, type=ELEMENT, name=Polymer-rivet-0
_Polymer-rivet-0_S5, S5
_Polymer-rivet-0_S6, S6
_Polymer-rivet-0_S4, S4
*Elset, elset=_Polymer-rivet-top-0_S1, internal, generate
 109,  154,    1
*Surface, type=ELEMENT, name=Polymer-rivet-top-0
_Polymer-rivet-top-0_S1, S1
*Elset, elset=_Polymer-rivet-bot-0_S2, internal, generate
  63,  108,    1
*Surface, type=ELEMENT, name=Polymer-rivet-bot-0
_Polymer-rivet-bot-0_S2, S2
*Elset, elset=_Polymer-rivet-1_S3, internal
 1227, 1228, 1229, 1231, 1232, 1233
*Elset, elset=_Polymer-rivet-1_S6, internal
 1227, 1228, 1229, 1231, 1232, 1233
*Elset, elset=_Polymer-rivet-1_S4, internal
 1230, 1234
*Elset, elset=_Polymer-rivet-1_S5, internal
 1230, 1234
*Surface, type=ELEMENT, name=Polymer-rivet-1
_Polymer-rivet-1_S3, S3
_Polymer-rivet-1_S6, S6
_Polymer-rivet-1_S4, S4
_Polymer-rivet-1_S5, S5
*Elset, elset=_Polymer-rivet-top-1_S1, internal, generate
 1231,  1234,     1
*Surface, type=ELEMENT, name=Polymer-rivet-top-1
_Polymer-rivet-top-1_S1, S1
*Elset, elset=_Polymer-rivet-bot-1_S2, internal, generate
 1227,  1230,     1
*Surface, type=ELEMENT, name=Polymer-rivet-bot-1
_Polymer-rivet-bot-1_S2, S2
*Elset, elset=_Polymer-rivet-2_S3, internal
  1,  5,  8, 13, 28, 29, 32, 36, 39, 44, 59, 60
*Elset, elset=_Polymer-rivet-2_S4, internal
  2,  4,  9, 14, 15, 16, 17, 33, 35, 40, 45, 46, 47, 48
*Elset, elset=_Polymer-rivet-2_S6, internal
 18, 19, 49, 50
*Elset, elset=_Polymer-rivet-2_S5, internal
 22, 53
*Surface, type=ELEMENT, name=Polymer-rivet-2
_Polymer-rivet-2_S3, S3
_Polymer-rivet-2_S4, S4
_Polymer-rivet-2_S6, S6
_Polymer-rivet-2_S5, S5
*Elset, elset=_Polymer-rivet-top-2_S1, internal, generate
 32,  62,   1
*Surface, type=ELEMENT, name=Polymer-rivet-top-2
_Polymer-rivet-top-2_S1, S1
*Elset, elset=_Polymer-rivet-bot-2_S2, internal, generate
  1,  31,   1
*Surface, type=ELEMENT, name=Polymer-rivet-bot-2
_Polymer-rivet-bot-2_S2, S2
*Elset, elset=_Polymer-rivet-3_S3, internal
 1235, 1236, 1237, 1239, 1240, 1241
*Elset, elset=_Polymer-rivet-3_S6, internal
 1235, 1236, 1237, 1239, 1240, 1241
*Elset, elset=_Polymer-rivet-3_S4, internal
 1238, 1242
*Elset, elset=_Polymer-rivet-3_S5, internal
 1238, 1242
*Surface, type=ELEMENT, name=Polymer-rivet-3
_Polymer-rivet-3_S3, S3
_Polymer-rivet-3_S6, S6
_Polymer-rivet-3_S4, S4
_Polymer-rivet-3_S5, S5
*Elset, elset=_Polymer-rivet-top-3_S1, internal, generate
 1239,  1242,     1
*Surface, type=ELEMENT, name=Polymer-rivet-top-3
_Polymer-rivet-top-3_S1, S1
*Elset, elset=_Polymer-rivet-bot-3_S2, internal, generate
 1235,  1238,     1
*Surface, type=ELEMENT, name=Polymer-rivet-bot-3
_Polymer-rivet-bot-3_S2, S2
** Section: PolySec
*Solid Section, elset=_PickedSet22, material=Polymer
,
** Section: PolySec
*Solid Section, elset=_PickedSet12, material=Polymer
,
** Section: PolySec
*Solid Section, elset=PolySet, material=Polymer
,
** Section: PolySec
*Solid Section, elset=_PickedSet17, material=Polymer
,
** Section: PolySec
*Solid Section, elset=_PickedSet27, material=Polymer
,
*End Part
**  
**
** ASSEMBLY
**
*Assembly, name=Assembly
**  
*Instance, name=Polymer-1, part=Polymer
*End Instance
**  
*Instance, name=Battery-1, part=Battery
         10.,          10.,           0.
*End Instance
**  
*Instance, name=CF-1, part=CF
          0.,           0.,         -0.4
*End Instance
**  
*Instance, name=CF-2, part=CF
          0.,           0.,          5.4
*End Instance
**  
*Node
      1,          55.,          55.,    5.4000001
*Nset, nset=VerticalSupport, instance=CF-1
   3,   4,   7,   8,  62,  63,  64,  65,  66,  67,  68,  69,  70,  71,  72,  73
  74,  75,  76,  77,  78,  79,  80,  81,  82,  83,  84,  85,  86,  87,  88,  89
  90,  91,  92,  93,  94,  95,  96,  97, 170, 171, 172, 173, 174, 175, 176, 177
 178, 179, 180, 181, 182, 183, 184, 185, 186, 187, 188, 189, 190, 191, 192, 193
 194, 195, 196, 197, 198, 199, 200, 201, 202, 203, 204, 205
*Elset, elset=VerticalSupport, instance=CF-1
  630,  631,  632,  633,  634,  635,  636,  637,  638,  639,  640,  641,  642,  643,  644,  645
  646,  647,  648,  649,  650,  651,  652,  653,  654,  655,  656,  657,  658,  659,  660,  661
  662,  663,  664,  665,  666, 1370, 1371, 1372, 1373, 1374, 1375, 1376, 1377, 1378, 1379, 1380
 1381, 1382, 1383, 1384, 1385, 1386, 1387, 1388, 1389, 1390, 1391, 1392, 1393, 1394, 1395, 1396
 1397, 1398, 1399, 1400, 1401, 1402, 1403, 1404, 1405, 1406
*Nset, nset=XDirSupport, instance=CF-1
 3,
*Nset, nset=YDirSupport, instance=CF-1
 7,
*Nset, nset=rigid_loading_set, instance=CF-2
   1,   2,   5,   6,   9,  10,  11,  12,  13,  14,  15,  16,  17,  18,  19,  20
  21,  22,  23,  24,  25,  26,  27,  28,  29,  30,  31,  32,  33,  34,  35,  36
  37,  38,  39,  40,  41,  42,  43,  44, 115, 116, 117, 118, 119, 120, 121, 122
 123, 124, 125, 126, 127, 128, 129, 130, 131, 132, 133, 134, 135, 136, 137, 138
 139, 140, 141, 142, 143, 144, 145, 146, 147, 148, 149, 150, 151, 152, 835, 836
 837, 838, 839, 840, 841, 842, 843, 844, 845, 846, 847, 848, 849, 850, 851, 852
 853, 854, 855, 856, 857, 858, 859, 860, 861, 862, 863, 864, 865, 866, 867, 868
 869, 870
*Elset, elset=rigid_loading_set, instance=CF-2, generate
 667,  740,    1
*Nset, nset=_PickedSet14, internal
 1,
*Elset, elset=__PickedSurf15_SPOS, internal, instance=CF-2, generate
 667,  740,    1
*Surface, type=ELEMENT, name=_PickedSurf15, internal
__PickedSurf15_SPOS, SPOS
** Constraint: BatPoly-0
*Tie, name=BatPoly-0, adjust=no, position tolerance=1.
Battery-1.Battery-rivet-0, Polymer-1.Polymer-rivet-0
** Constraint: BatPoly-1
*Tie, name=BatPoly-1, adjust=no, position tolerance=1.
Battery-1.Battery-rivet-1, Polymer-1.Polymer-rivet-1
** Constraint: BatPoly-2
*Tie, name=BatPoly-2, adjust=no, position tolerance=1.
Battery-1.Battery-rivet-2, Polymer-1.Polymer-rivet-2
** Constraint: BatPoly-3
*Tie, name=BatPoly-3, adjust=no, position tolerance=1.
Battery-1.Battery-rivet-3, Polymer-1.Polymer-rivet-3
** Constraint: CF1Poly
*Tie, name=CF1Poly, adjust=no, position tolerance=1.
Polymer-1.PolyBot, CF-1.CFtop
** Constraint: CF1Poly-Rivet-0
*Tie, name=CF1Poly-Rivet-0, adjust=no, position tolerance=1.
Polymer-1.Polymer-rivet-bot-0, CF-1.CFtop
** Constraint: CF1Poly-Rivet-1
*Tie, name=CF1Poly-Rivet-1, adjust=no, position tolerance=1.
Polymer-1.Polymer-rivet-bot-1, CF-1.CFtop
** Constraint: CF1Poly-Rivet-2
*Tie, name=CF1Poly-Rivet-2, adjust=no, position tolerance=1.
Polymer-1.Polymer-rivet-bot-2, CF-1.CFtop
** Constraint: CF1Poly-Rivet-3
*Tie, name=CF1Poly-Rivet-3, adjust=no, position tolerance=1.
Polymer-1.Polymer-rivet-bot-3, CF-1.CFtop
** Constraint: CF2Poly
*Tie, name=CF2Poly, adjust=no, position tolerance=1.
Polymer-1.PolyTop, CF-2.CFbot
** Constraint: CF2Poly-Rivet-0
*Tie, name=CF2Poly-Rivet-0, adjust=no, position tolerance=1.
Polymer-1.Polymer-rivet-top-0, CF-2.CFbot
** Constraint: CF2Poly-Rivet-1
*Tie, name=CF2Poly-Rivet-1, adjust=no, position tolerance=1.
Polymer-1.Polymer-rivet-top-1, CF-2.CFbot
** Constraint: CF2Poly-Rivet-2
*Tie, name=CF2Poly-Rivet-2, adjust=no, position tolerance=1.
Polymer-1.Polymer-rivet-top-2, CF-2.CFbot
** Constraint: CF2Poly-Rivet-3
*Tie, name=CF2Poly-Rivet-3, adjust=no, position tolerance=1.
Polymer-1.Polymer-rivet-top-3, CF-2.CFbot
** Constraint: LoadingRigidBody
*Rigid Body, ref node=_PickedSet14, tie nset=rigid_loading_set
*End Assembly
** 
** MATERIALS
** 
*Material, name=BatOrtho
*Elastic, type=ENGINEERING CONSTANTS
1090., 109., 500., 0.15, 0.15, 0.15, 474., 474.
 474.,
*Material, name=CF_material
*Elastic, type=ENGINEERING CONSTANTS
30420.,  4023.,  4023.,   0.29,   0.29, 0.3928,  2081.,  2081.
  1440.,
*Material, name=Polymer
*Elastic
500., 0.3
** 
** INTERACTION PROPERTIES
** 
*Surface Interaction, name=NormCont
1.,
*Friction, slip tolerance=0.005
 0.3,
*Surface Behavior, pressure-overclosure=HARD
** 
** INTERACTIONS
** 
** Interaction: CF1Bat
*Contact Pair, interaction=NormCont, type=SURFACE TO SURFACE
Battery-1.BatBot, CF-1.CFtop
** Interaction: CF2Bat
*Contact Pair, interaction=NormCont, type=SURFACE TO SURFACE
Battery-1.BatTop, CF-2.CFbot
** ----------------------------------------------------------------
** 
** STEP: Loading
** 
*Step, name=Loading, nlgeom=NO
*Static
1., 1., 1e-05, 1.
** 
** BOUNDARY CONDITIONS
** 
** Name: VerticalSupport Type: Displacement/Rotation
*Boundary
VerticalSupport, 3, 3
** Name: XDirSupport Type: Displacement/Rotation
*Boundary
XDirSupport, 1, 1
** Name: YDirSupport Type: Displacement/Rotation
*Boundary
YDirSupport, 2, 2
** 
** LOADS
** 
** Name: Load-1   Type: Pressure
*Dsload
_PickedSurf15, P, 0.181818
** 
** OUTPUT REQUESTS
** 
*Restart, write, frequency=0
** 
** FIELD OUTPUT: F-Output-1
** 
*Output, field
*Node Output
U, UR, UT
*Element Output, directions=YES
EVOL, 
** 
** HISTORY OUTPUT: H-Output-1
** 
*Output, history, variable=PRESELECT
*End Step
