 Abaqus/Standard 3DEXPERIENCE R2019x                  DATE 29-May-2019 TIME 12:15:45
 SUMMARY OF JOB INFORMATION:
 STEP  INC ATT SEVERE EQUIL TOTAL  TOTAL      STEP       INC OF       DOF    IF
               DISCON ITERS ITERS  TIME/    TIME/LPF    TIME/LPF    MONITOR RIKS
               ITERS               FREQ
   1     1   1U   18    16    34  0.000      0.000      1.000     
   1     1   2    18    14    32  0.250      0.250      0.2500    
   1     2   1U    3     2     5  0.250      0.250      0.1875    
   1     2   2U    3     3     6  0.250      0.250      0.04688   
   1     2   3U    1     4     5  0.250      0.250      0.01172   
   1     2   4U    1     4     5  0.250      0.250      0.002930  
   1     2   5U    4     3     7  0.250      0.250      0.0007324 
                          
 THE ANALYSIS HAS NOT BEEN COMPLETED
