 Abaqus/Standard 3DEXPERIENCE R2019x                  DATE 29-May-2019 TIME 15:28:11
 SUMMARY OF JOB INFORMATION:
 STEP  INC ATT SEVERE EQUIL TOTAL  TOTAL      STEP       INC OF       DOF    IF
               DISCON ITERS ITERS  TIME/    TIME/LPF    TIME/LPF    MONITOR RIKS
               ITERS               FREQ
   1     1   1U   19    16    35  0.000      0.000      1.000     
   1     1   2    18     1    19  0.250      0.250      0.2500    
   1     2   1U    4     1     5  0.250      0.250      0.2500    
   1     2   2U    4     3     7  0.250      0.250      0.06250   
   1     2   3U    1     4     5  0.250      0.250      0.01563   
   1     2   4U    1     4     5  0.250      0.250      0.003906  
   1     2   5     0     1     1  0.251      0.251      0.0009766 
   1     3   1U    1     4     5  0.251      0.251      0.001465  
   1     3   2U    1     4     5  0.251      0.251      0.0003662 
   1     3   3U    1     4     5  0.251      0.251      9.155e-05 
   1     3   4U    1     4     5  0.251      0.251      2.289e-05 
   1     3   5U    0     4     4  0.251      0.251      1.000e-05 
                          
 THE ANALYSIS HAS NOT BEEN COMPLETED
